xflr5 v6.47

 Calculated polar for: NACA 23015

 1 1 Reynolds number fixed          Mach number fixed         

 xtrf =   1.000 (top)        1.000 (bottom)
 Mach =   0.000     Re =     1.800 e 6     Ncrit =   5.000

  alpha     CL        CD       CDp       Cm    Top Xtr Bot Xtr   Cpmin    Chinge    XCp    
 ------- -------- --------- --------- -------- ------- ------- -------- --------- ---------
 -15.000  -1.3579   0.02147   0.01654  -0.0401  1.0000  0.0127  -10.7461   0.0000   0.2014
 -14.800  -1.3467   0.02089   0.01594  -0.0389  1.0000  0.0129  -10.5712   0.0000   0.2024
 -14.600  -1.3350   0.02036   0.01539  -0.0377  1.0000  0.0130  -10.3943   0.0000   0.2034
 -14.400  -1.3231   0.01987   0.01487  -0.0364  1.0000  0.0132  -10.2162   0.0000   0.2044
 -14.200  -1.3109   0.01940   0.01439  -0.0351  1.0000  0.0134  -10.0377   0.0000   0.2055
 -14.000  -1.2985   0.01897   0.01393  -0.0337  1.0000  0.0135  -9.8597   0.0000   0.2066
 -13.800  -1.2863   0.01856   0.01350  -0.0322  1.0000  0.0137  -9.6831   0.0000   0.2078
 -13.600  -1.2742   0.01818   0.01309  -0.0307  1.0000  0.0138  -9.5088   0.0000   0.2091
 -13.400  -1.2623   0.01782   0.01271  -0.0290  1.0000  0.0139  -9.3360   0.0000   0.2105
 -13.200  -1.2492   0.01747   0.01234  -0.0275  1.0000  0.0141  -9.1587   0.0000   0.2118
 -13.000  -1.2351   0.01713   0.01198  -0.0262  1.0000  0.0142  -8.9775   0.0000   0.2129
 -12.800  -1.2211   0.01681   0.01164  -0.0248  1.0000  0.0143  -8.7979   0.0000   0.2140
 -12.600  -1.2075   0.01651   0.01132  -0.0233  1.0000  0.0144  -8.6218   0.0000   0.2153
 -12.400  -1.1945   0.01622   0.01102  -0.0217  1.0000  0.0145  -8.4578   0.0000   0.2168
 -12.200  -1.1818   0.01595   0.01073  -0.0199  1.0000  0.0146  -8.2982   0.0000   0.2183
 -12.000  -1.1603   0.01563   0.01038  -0.0200  0.9990  0.0148  -8.0994   0.0000   0.2182
 -11.800  -1.1371   0.01530   0.01004  -0.0205  0.9978  0.0149  -7.8947   0.0000   0.2177
 -11.600  -1.1139   0.01499   0.00971  -0.0209  0.9965  0.0150  -7.6924   0.0000   0.2172
 -11.400  -1.0908   0.01467   0.00938  -0.0212  0.9949  0.0151  -7.4927   0.0000   0.2167
 -11.200  -1.0678   0.01430   0.00900  -0.0216  0.9933  0.0154  -7.2987   0.0000   0.2161
 -11.000  -1.0457   0.01397   0.00866  -0.0218  0.9906  0.0157  -7.1092   0.0000   0.2158
 -10.800  -1.0230   0.01367   0.00835  -0.0220  0.9880  0.0160  -6.9175   0.0000   0.2153
 -10.600  -1.0010   0.01338   0.00807  -0.0221  0.9844  0.0163  -6.7305   0.0000   0.2150
 -10.400  -0.9786   0.01311   0.00779  -0.0223  0.9808  0.0166  -6.5433   0.0000   0.2145
 -10.200  -0.9574   0.01286   0.00753  -0.0221  0.9758  0.0169  -6.3635   0.0000   0.2144
 -10.000  -0.9363   0.01262   0.00728  -0.0219  0.9705  0.0172  -6.1859   0.0000   0.2143
  -9.800  -0.9159   0.01240   0.00704  -0.0215  0.9643  0.0174  -6.0130   0.0000   0.2144
  -9.600  -0.8961   0.01218   0.00681  -0.0210  0.9569  0.0177  -5.8444   0.0000   0.2146
  -9.400  -0.8763   0.01199   0.00659  -0.0205  0.9491  0.0180  -5.6775   0.0000   0.2149
  -9.200  -0.8565   0.01180   0.00638  -0.0199  0.9407  0.0182  -5.5121   0.0000   0.2152
  -9.000  -0.8366   0.01163   0.00618  -0.0194  0.9316  0.0184  -5.3482   0.0000   0.2155
  -8.800  -0.8168   0.01144   0.00596  -0.0188  0.9218  0.0187  -5.1877   0.0000   0.2158
  -8.600  -0.7970   0.01124   0.00573  -0.0182  0.9113  0.0192  -5.0300   0.0000   0.2161
  -8.400  -0.7770   0.01106   0.00552  -0.0177  0.9002  0.0197  -4.8721   0.0000   0.2163
  -8.200  -0.7566   0.01090   0.00532  -0.0173  0.8885  0.0201  -4.7149   0.0000   0.2165
  -8.000  -0.7361   0.01074   0.00513  -0.0169  0.8762  0.0205  -4.5589   0.0000   0.2166
  -7.800  -0.7154   0.01060   0.00495  -0.0165  0.8632  0.0209  -4.4043   0.0000   0.2166
  -7.600  -0.6946   0.01048   0.00478  -0.0161  0.8497  0.0214  -4.2539   0.0000   0.2166
  -7.400  -0.6736   0.01036   0.00461  -0.0158  0.8355  0.0217  -4.1123   0.0000   0.2165
  -7.200  -0.6525   0.01025   0.00445  -0.0154  0.8209  0.0220  -3.9721   0.0000   0.2164
  -7.000  -0.6313   0.01014   0.00429  -0.0151  0.8057  0.0223  -3.8336   0.0000   0.2162
  -6.800  -0.6103   0.01001   0.00412  -0.0148  0.7901  0.0231  -3.6985   0.0000   0.2160
  -6.600  -0.5892   0.00990   0.00397  -0.0145  0.7742  0.0237  -3.5637   0.0000   0.2158
  -6.400  -0.5679   0.00981   0.00383  -0.0142  0.7581  0.0245  -3.4299   0.0000   0.2155
  -6.200  -0.5464   0.00972   0.00369  -0.0140  0.7414  0.0252  -3.2973   0.0000   0.2150
  -6.000  -0.5248   0.00964   0.00356  -0.0138  0.7241  0.0259  -3.1665   0.0000   0.2145
  -5.800  -0.5032   0.00958   0.00344  -0.0135  0.7053  0.0263  -3.0377   0.0000   0.2139
  -5.600  -0.4820   0.00952   0.00331  -0.0133  0.6810  0.0272  -2.9124   0.0000   0.2133
  -5.400  -0.4609   0.00949   0.00319  -0.0130  0.6510  0.0282  -2.7888   0.0000   0.2128
  -5.200  -0.4395   0.00947   0.00308  -0.0127  0.6223  0.0291  -2.6664   0.0000   0.2121
  -5.000  -0.4178   0.00943   0.00298  -0.0125  0.6019  0.0300  -2.5449   0.0000   0.2111
  -4.800  -0.3959   0.00938   0.00288  -0.0124  0.5863  0.0307  -2.4269   0.0000   0.2098
  -4.600  -0.3740   0.00932   0.00278  -0.0122  0.5709  0.0318  -2.3176   0.0000   0.2084
  -4.400  -0.3520   0.00926   0.00268  -0.0121  0.5557  0.0333  -2.2095   0.0000   0.2067
  -4.200  -0.3300   0.00921   0.00260  -0.0120  0.5415  0.0347  -2.1026   0.0000   0.2048
  -4.000  -0.3078   0.00917   0.00252  -0.0119  0.5267  0.0359  -1.9975   0.0000   0.2025
  -3.800  -0.2858   0.00913   0.00244  -0.0117  0.5114  0.0376  -1.8946   0.0000   0.1999
  -3.600  -0.2637   0.00909   0.00237  -0.0116  0.4971  0.0393  -1.7929   0.0000   0.1968
  -3.400  -0.2414   0.00906   0.00230  -0.0115  0.4837  0.0407  -1.6927   0.0000   0.1930
  -3.200  -0.2193   0.00902   0.00223  -0.0114  0.4693  0.0429  -1.5946   0.0000   0.1885
  -3.000  -0.1971   0.00900   0.00217  -0.0113  0.4544  0.0454  -1.5000   0.0000   0.1830
  -2.800  -0.1749   0.00897   0.00211  -0.0112  0.4404  0.0481  -1.4124   0.0000   0.1760
  -2.600  -0.1527   0.00895   0.00206  -0.0112  0.4277  0.0510  -1.3260   0.0000   0.1668
  -2.400  -0.1305   0.00893   0.00201  -0.0111  0.4140  0.0540  -1.2414   0.0000   0.1545
  -2.200  -0.1082   0.00892   0.00197  -0.0110  0.3997  0.0575  -1.1581   0.0000   0.1371
  -2.000  -0.0861   0.00891   0.00193  -0.0109  0.3859  0.0624  -1.0765   0.0000   0.1109
  -1.800  -0.0639   0.00889   0.00189  -0.0108  0.3736  0.0681  -0.9964   0.0000   0.0663
  -1.600  -0.0417   0.00888   0.00186  -0.0108  0.3613  0.0744  -0.9237   0.0000  -0.0260
  -1.000   0.0242   0.00877   0.00176  -0.0104  0.3235  0.1164  -0.7154   0.0000   0.6920
  -0.800   0.0421   0.00823   0.00161  -0.0098  0.3141  0.2422  -0.7050   0.0000   0.4846
  -0.600   0.0617   0.00793   0.00153  -0.0093  0.3045  0.3220  -0.7308   0.0000   0.4008
  -0.400   0.0827   0.00779   0.00151  -0.0091  0.2942  0.3673  -0.7578   0.0000   0.3578
  -0.200   0.1041   0.00772   0.00150  -0.0089  0.2839  0.4020  -0.7853   0.0000   0.3324
   0.000   0.1256   0.00764   0.00150  -0.0088  0.2747  0.4350  -0.8131   0.0000   0.3157
   0.200   0.1475   0.00758   0.00150  -0.0087  0.2675  0.4640  -0.8426   0.0000   0.3041
   0.400   0.1693   0.00754   0.00151  -0.0085  0.2601  0.4919  -0.8722   0.0000   0.2954
   0.600   0.1913   0.00750   0.00152  -0.0084  0.2530  0.5181  -0.9022   0.0000   0.2888
   0.800   0.2132   0.00747   0.00154  -0.0083  0.2465  0.5444  -0.9323   0.0000   0.2835
   1.200   0.2569   0.00738   0.00159  -0.0081  0.2358  0.6046  -0.9943   0.0000   0.2754
   1.400   0.2788   0.00734   0.00162  -0.0080  0.2312  0.6343  -1.0264   0.0000   0.2723
   1.600   0.3011   0.00737   0.00165  -0.0079  0.2263  0.6490  -1.0590   0.0000   0.2699
   1.800   0.3238   0.00739   0.00169  -0.0079  0.2224  0.6612  -1.0921   0.0000   0.2679
   2.000   0.3463   0.00743   0.00173  -0.0079  0.2182  0.6735  -1.1254   0.0000   0.2662
   2.200   0.3688   0.00746   0.00177  -0.0079  0.2148  0.6863  -1.1600   0.0000   0.2646
   2.400   0.3914   0.00747   0.00182  -0.0079  0.2120  0.6990  -1.1953   0.0000   0.2632
   2.600   0.4139   0.00750   0.00186  -0.0079  0.2086  0.7118  -1.2307   0.0000   0.2619
   2.800   0.4362   0.00755   0.00192  -0.0079  0.2049  0.7246  -1.2661   0.0000   0.2607
   3.000   0.4587   0.00757   0.00197  -0.0079  0.2026  0.7376  -1.3020   0.0000   0.2596
   3.200   0.4812   0.00760   0.00202  -0.0078  0.2001  0.7506  -1.3395   0.0000   0.2586
   3.400   0.5035   0.00764   0.00208  -0.0078  0.1973  0.7635  -1.3774   0.0000   0.2577
   3.600   0.5257   0.00769   0.00215  -0.0078  0.1942  0.7765  -1.4153   0.0000   0.2568
   3.800   0.5481   0.00773   0.00221  -0.0077  0.1920  0.7894  -1.4537   0.0000   0.2560
   4.000   0.5704   0.00776   0.00228  -0.0077  0.1897  0.8022  -1.4924   0.0000   0.2552
   4.200   0.5926   0.00781   0.00235  -0.0077  0.1873  0.8148  -1.5328   0.0000   0.2544
   4.400   0.6147   0.00788   0.00243  -0.0076  0.1845  0.8273  -1.5733   0.0000   0.2537
   4.600   0.6368   0.00792   0.00250  -0.0075  0.1824  0.8395  -1.6142   0.0000   0.2529
   4.800   0.6589   0.00797   0.00258  -0.0074  0.1802  0.8512  -1.6554   0.0000   0.2523
   5.000   0.6809   0.00803   0.00267  -0.0073  0.1780  0.8626  -1.6976   0.0000   0.2516
   5.200   0.7028   0.00810   0.00276  -0.0072  0.1756  0.8736  -1.7409   0.0000   0.2509
   5.400   0.7245   0.00818   0.00285  -0.0071  0.1731  0.8840  -1.7843   0.0000   0.2502
   5.600   0.7465   0.00824   0.00294  -0.0070  0.1712  0.8940  -1.8283   0.0000   0.2496
   5.800   0.7683   0.00832   0.00303  -0.0069  0.1691  0.9037  -1.8727   0.0000   0.2490
   6.000   0.7900   0.00841   0.00313  -0.0067  0.1670  0.9130  -1.9189   0.0000   0.2483
   6.200   0.8113   0.00851   0.00324  -0.0065  0.1644  0.9217  -1.9650   0.0000   0.2477
   6.400   0.8328   0.00860   0.00335  -0.0064  0.1624  0.9297  -2.0117   0.0000   0.2470
   6.600   0.8543   0.00868   0.00345  -0.0062  0.1606  0.9373  -2.0589   0.0000   0.2464
   6.800   0.8757   0.00878   0.00356  -0.0060  0.1586  0.9447  -2.1082   0.0000   0.2458
   7.000   0.8968   0.00890   0.00368  -0.0058  0.1562  0.9513  -2.1575   0.0000   0.2452
   7.200   0.9179   0.00903   0.00380  -0.0056  0.1536  0.9575  -2.2071   0.0000   0.2446
   7.400   0.9395   0.00913   0.00392  -0.0054  0.1521  0.9635  -2.2586   0.0000   0.2440
   7.600   0.9615   0.00925   0.00404  -0.0054  0.1501  0.9683  -2.3124   0.0000   0.2437
   7.800   0.9832   0.00938   0.00417  -0.0054  0.1477  0.9732  -2.3662   0.0000   0.2432
   8.000   1.0058   0.00954   0.00431  -0.0055  0.1452  0.9772  -2.4221   0.0000   0.2430
   8.200   1.0284   0.00967   0.00444  -0.0057  0.1433  0.9810  -2.4803   0.0000   0.2428
   8.400   1.0523   0.00981   0.00458  -0.0062  0.1412  0.9837  -2.5407   0.0000   0.2429
   8.600   1.0749   0.00996   0.00472  -0.0064  0.1388  0.9872  -2.6015   0.0000   0.2427
   8.800   1.0993   0.01014   0.00489  -0.0070  0.1362  0.9889  -2.6663   0.0000   0.2429
   9.000   1.1233   0.01030   0.00505  -0.0075  0.1340  0.9910  -2.7323   0.0000   0.2429
   9.200   1.1470   0.01045   0.00520  -0.0080  0.1319  0.9931  -2.8003   0.0000   0.2429
   9.400   1.1720   0.01064   0.00538  -0.0088  0.1291  0.9940  -2.8727   0.0000   0.2432
   9.600   1.1964   0.01086   0.00557  -0.0095  0.1261  0.9951  -2.9464   0.0000   0.2433
   9.800   1.2209   0.01102   0.00575  -0.0102  0.1240  0.9963  -3.0247   0.0000   0.2435
  10.000   1.2448   0.01122   0.00593  -0.0108  0.1211  0.9975  -3.1056   0.0000   0.2435
  10.200   1.2689   0.01146   0.00615  -0.0115  0.1178  0.9983  -3.1912   0.0000   0.2436
  10.400   1.2931   0.01165   0.00635  -0.0121  0.1153  0.9992  -3.2827   0.0000   0.2436
  10.600   1.3157   0.01188   0.00656  -0.0125  0.1121  1.0000  -3.3762   0.0000   0.2434
  10.800   1.3301   0.01211   0.00677  -0.0111  0.1089  1.0000  -3.4552   0.0000   0.2420
  11.000   1.3460   0.01228   0.00695  -0.0100  0.1067  1.0000  -3.5431   0.0000   0.2407
  11.200   1.3613   0.01250   0.00716  -0.0089  0.1036  1.0000  -3.6302   0.0000   0.2395
  11.400   1.3764   0.01275   0.00740  -0.0077  0.1006  1.0000  -3.7226   0.0000   0.2382
  11.600   1.3928   0.01296   0.00762  -0.0068  0.0979  1.0000  -3.8195   0.0000   0.2372
  11.800   1.4085   0.01324   0.00788  -0.0058  0.0946  1.0000  -3.9165   0.0000   0.2361
  12.000   1.4246   0.01351   0.00814  -0.0049  0.0918  1.0000  -4.0203   0.0000   0.2351
  12.200   1.4408   0.01378   0.00841  -0.0040  0.0886  1.0000  -4.1253   0.0000   0.2341
  12.400   1.4559   0.01412   0.00873  -0.0030  0.0852  1.0000  -4.2281   0.0000   0.2330
  12.600   1.4720   0.01439   0.00901  -0.0022  0.0826  1.0000  -4.3366   0.0000   0.2321
  12.800   1.4862   0.01476   0.00936  -0.0011  0.0791  1.0000  -4.4450   0.0000   0.2310
  13.000   1.4996   0.01509   0.00969   0.0002  0.0762  1.0000  -4.5522   0.0000   0.2297
  13.200   1.5117   0.01546   0.01006   0.0017  0.0730  1.0000  -4.6564   0.0000   0.2284
  13.400   1.5239   0.01585   0.01045   0.0031  0.0704  1.0000  -4.7617   0.0000   0.2271
  13.600   1.5364   0.01624   0.01085   0.0043  0.0675  1.0000  -4.8689   0.0000   0.2260
  13.800   1.5472   0.01675   0.01134   0.0058  0.0642  1.0000  -4.9725   0.0000   0.2247
  14.000   1.5591   0.01721   0.01181   0.0070  0.0612  1.0000  -5.0858   0.0000   0.2235
  14.200   1.5690   0.01780   0.01239   0.0084  0.0581  1.0000  -5.1926   0.0000   0.2223
  14.400   1.5807   0.01829   0.01290   0.0095  0.0559  1.0000  -5.3070   0.0000   0.2212
  14.600   1.5907   0.01891   0.01352   0.0108  0.0533  1.0000  -5.4157   0.0000   0.2201
  14.800   1.6006   0.01954   0.01416   0.0120  0.0511  1.0000  -5.5248   0.0000   0.2190
  15.000   1.6101   0.02022   0.01485   0.0131  0.0487  1.0000  -5.6333   0.0000   0.2179
  15.200   1.6175   0.02106   0.01569   0.0143  0.0461  1.0000  -5.7342   0.0000   0.2168
  15.400   1.6263   0.02183   0.01649   0.0154  0.0440  1.0000  -5.8409   0.0000   0.2157
  15.600   1.6328   0.02279   0.01746   0.0165  0.0417  1.0000  -5.9394   0.0000   0.2147
  15.800   1.6402   0.02373   0.01842   0.0174  0.0400  1.0000  -6.0463   0.0000   0.2137
  16.000   1.6474   0.02471   0.01943   0.0182  0.0384  1.0000  -6.1550   0.0000   0.2128
  16.200   1.6527   0.02588   0.02062   0.0190  0.0367  1.0000  -6.2561   0.0000   0.2119
  16.400   1.6580   0.02710   0.02188   0.0197  0.0353  1.0000  -6.3569   0.0000   0.2111
  16.600   1.6637   0.02833   0.02315   0.0202  0.0342  1.0000  -6.4603   0.0000   0.2103
  16.800   1.6678   0.02976   0.02461   0.0207  0.0329  1.0000  -6.5566   0.0000   0.2096
  17.000   1.6698   0.03142   0.02631   0.0211  0.0316  1.0000  -6.6436   0.0000   0.2089
  17.200   1.6719   0.03314   0.02806   0.0213  0.0305  1.0000  -6.7310   0.0000   0.2082
  17.400   1.6740   0.03491   0.02989   0.0214  0.0296  1.0000  -6.8184   0.0000   0.2077
  17.600   1.6740   0.03697   0.03199   0.0214  0.0285  1.0000  -6.8955   0.0000   0.2072
  17.800   1.6716   0.03933   0.03440   0.0213  0.0275  1.0000  -6.9610   0.0000   0.2067
  18.000   1.6674   0.04196   0.03708   0.0209  0.0265  1.0000  -7.0173   0.0000   0.2063
  18.200   1.6649   0.04449   0.03968   0.0205  0.0259  1.0000  -7.0811   0.0000   0.2061
  18.400   1.6609   0.04728   0.04254   0.0199  0.0253  1.0000  -7.1366   0.0000   0.2058
  18.600   1.6544   0.05040   0.04573   0.0191  0.0247  1.0000  -7.1791   0.0000   0.2057
  18.800   1.6459   0.05386   0.04927   0.0181  0.0242  1.0000  -7.2101   0.0000   0.2057
  19.000   1.6350   0.05769   0.05318   0.0169  0.0237  1.0000  -7.2280   0.0000   0.2057
  19.200   1.6217   0.06191   0.05748   0.0156  0.0233  1.0000  -7.2316   0.0000   0.2059
  19.400   1.6059   0.06652   0.06218   0.0140  0.0230  1.0000  -7.2200   0.0000   0.2062
  19.600   1.5879   0.07153   0.06729   0.0122  0.0226  1.0000  -7.1947   0.0000   0.2066
  19.800   1.5679   0.07690   0.07275   0.0102  0.0224  1.0000  -7.1558   0.0000   0.2072
  20.000   1.5462   0.08256   0.07852   0.0081  0.0222  1.0000  -7.1051   0.0000   0.2079
  20.200   1.5233   0.08849   0.08456   0.0058  0.0221  1.0000  -7.0447   0.0000   0.2087
  20.400   1.4991   0.09470   0.09088   0.0033  0.0220  1.0000  -6.9737   0.0000   0.2098
  20.600   1.4745   0.10099   0.09728   0.0007  0.0220  1.0000  -6.8967   0.0000   0.2109
  20.800   1.4493   0.10753   0.10392  -0.0021  0.0219  1.0000  -6.8121   0.0000   0.2123
  21.000   1.4258   0.11389   0.11039  -0.0050  0.0218  1.0000  -6.7332   0.0000   0.2137
  21.200   1.4029   0.12019   0.11678  -0.0079  0.0216  1.0000  -6.6541   0.0000   0.2153
  21.400   1.3830   0.12612   0.12280  -0.0107  0.0215  1.0000  -6.5899   0.0000   0.2169
  21.600   1.3652   0.13184   0.12860  -0.0135  0.0212  1.0000  -6.5346   0.0000   0.2186
  21.800   1.3490   0.13737   0.13420  -0.0164  0.0210  1.0000  -6.4858   0.0000   0.2203
  22.000   1.3339   0.14271   0.13961  -0.0193  0.0207  1.0000  -6.4417   0.0000   0.2220
  22.200   1.3207   0.14784   0.14480  -0.0221  0.0203  1.0000  -6.4060   0.0000   0.2238
  22.400   1.3104   0.15250   0.14951  -0.0248  0.0199  1.0000  -6.3877   0.0000   0.2254
  22.600   1.2990   0.15746   0.15452  -0.0277  0.0196  1.0000  -6.3573   0.0000   0.2273
  22.800   1.2891   0.16223   0.15934  -0.0306  0.0191  1.0000  -6.3344   0.0000   0.2291
  23.000   1.2822   0.16648   0.16364  -0.0332  0.0186  1.0000  -6.3309   0.0000   0.2308
  23.200   1.2753   0.17077   0.16797  -0.0359  0.0183  1.0000  -6.3247   0.0000   0.2325
  23.400   1.2722   0.17433   0.17157  -0.0383  0.0181  1.0000  -6.3461   0.0000   0.2339
  23.600   1.2668   0.17832   0.17561  -0.0409  0.0178  1.0000  -6.3478   0.0000   0.2355
  23.800   1.2639   0.18189   0.17921  -0.0433  0.0174  1.0000  -6.3677   0.0000   0.2370
  24.000   1.2598   0.18574   0.18311  -0.0460  0.0170  1.0000  -6.3747   0.0000   0.2386
  24.200   1.2563   0.18950   0.18690  -0.0486  0.0166  1.0000  -6.3849   0.0000   0.2403
  24.400   1.2534   0.19316   0.19059  -0.0513  0.0162  1.0000  -6.3988   0.0000   0.2419
  24.600   1.2488   0.19722   0.19467  -0.0542  0.0157  1.0000  -6.3940   0.0000   0.2438
  24.800   1.2467   0.20081   0.19829  -0.0568  0.0152  1.0000  -6.4100   0.0000   0.2455
  25.000   1.2441   0.20451   0.20203  -0.0596  0.0149  1.0000  -6.4192   0.0000   0.2472


