xflr5 v6.47

 Calculated polar for: NACA 23015

 1 1 Reynolds number fixed          Mach number fixed         

 xtrf =   1.000 (top)        1.000 (bottom)
 Mach =   0.000     Re =     1.400 e 6     Ncrit =   5.000

  alpha     CL        CD       CDp       Cm    Top Xtr Bot Xtr   Cpmin    Chinge    XCp    
 ------- -------- --------- --------- -------- ------- ------- -------- --------- ---------
 -15.000  -1.3261   0.02369   0.01873  -0.0431  1.0000  0.0136  -10.5071   0.0000   0.1983
 -14.800  -1.3154   0.02304   0.01804  -0.0420  1.0000  0.0138  -10.3385   0.0000   0.1992
 -14.600  -1.3045   0.02242   0.01739  -0.0409  1.0000  0.0139  -10.1692   0.0000   0.2002
 -14.400  -1.2932   0.02184   0.01677  -0.0397  1.0000  0.0140  -9.9988   0.0000   0.2011
 -14.200  -1.2817   0.02129   0.01619  -0.0385  1.0000  0.0141  -9.8285   0.0000   0.2022
 -14.000  -1.2701   0.02077   0.01563  -0.0372  1.0000  0.0143  -9.6582   0.0000   0.2032
 -13.800  -1.2582   0.02028   0.01510  -0.0359  1.0000  0.0144  -9.4878   0.0000   0.2043
 -13.600  -1.2463   0.01982   0.01461  -0.0345  1.0000  0.0145  -9.3176   0.0000   0.2055
 -13.400  -1.2343   0.01939   0.01415  -0.0330  1.0000  0.0146  -9.1484   0.0000   0.2067
 -13.200  -1.2226   0.01899   0.01371  -0.0314  1.0000  0.0147  -8.9811   0.0000   0.2081
 -13.000  -1.2111   0.01861   0.01331  -0.0297  1.0000  0.0148  -8.8155   0.0000   0.2095
 -12.800  -1.1987   0.01826   0.01293  -0.0281  1.0000  0.0149  -8.6468   0.0000   0.2109
 -12.600  -1.1851   0.01791   0.01255  -0.0267  1.0000  0.0149  -8.4732   0.0000   0.2121
 -12.400  -1.1717   0.01758   0.01220  -0.0252  1.0000  0.0150  -8.3086   0.0000   0.2134
 -12.200  -1.1597   0.01721   0.01181  -0.0234  1.0000  0.0152  -8.1575   0.0000   0.2149
 -12.000  -1.1485   0.01685   0.01142  -0.0215  1.0000  0.0154  -8.0114   0.0000   0.2167
 -11.800  -1.1371   0.01652   0.01107  -0.0196  1.0000  0.0156  -7.8640   0.0000   0.2185
 -11.600  -1.1175   0.01614   0.01069  -0.0193  0.9990  0.0159  -7.6797   0.0000   0.2187
 -11.400  -1.0942   0.01578   0.01031  -0.0198  0.9978  0.0161  -7.4805   0.0000   0.2181
 -11.200  -1.0711   0.01543   0.00995  -0.0202  0.9963  0.0164  -7.2833   0.0000   0.2175
 -11.000  -1.0476   0.01509   0.00961  -0.0207  0.9947  0.0167  -7.0867   0.0000   0.2169
 -10.800  -1.0235   0.01477   0.00927  -0.0213  0.9933  0.0169  -6.8897   0.0000   0.2161
 -10.600  -1.0006   0.01446   0.00896  -0.0216  0.9909  0.0172  -6.7000   0.0000   0.2155
 -10.400  -0.9773   0.01417   0.00865  -0.0219  0.9883  0.0175  -6.5110   0.0000   0.2148
 -10.200  -0.9545   0.01389   0.00835  -0.0222  0.9852  0.0177  -6.3260   0.0000   0.2142
 -10.000  -0.9318   0.01361   0.00807  -0.0224  0.9815  0.0180  -6.1433   0.0000   0.2136
  -9.800  -0.9096   0.01336   0.00780  -0.0225  0.9773  0.0182  -5.9649   0.0000   0.2132
  -9.600  -0.8872   0.01312   0.00754  -0.0225  0.9727  0.0184  -5.7869   0.0000   0.2126
  -9.400  -0.8666   0.01285   0.00727  -0.0222  0.9666  0.0187  -5.6197   0.0000   0.2126
  -9.200  -0.8465   0.01258   0.00698  -0.0218  0.9600  0.0192  -5.4561   0.0000   0.2126
  -9.000  -0.8264   0.01234   0.00673  -0.0214  0.9528  0.0197  -5.2937   0.0000   0.2127
  -8.800  -0.8066   0.01213   0.00650  -0.0208  0.9447  0.0200  -5.1338   0.0000   0.2130
  -8.600  -0.7869   0.01193   0.00628  -0.0203  0.9358  0.0204  -4.9760   0.0000   0.2132
  -8.400  -0.7670   0.01173   0.00606  -0.0197  0.9263  0.0208  -4.8197   0.0000   0.2134
  -8.200  -0.7470   0.01156   0.00585  -0.0192  0.9161  0.0212  -4.6649   0.0000   0.2136
  -8.000  -0.7268   0.01139   0.00564  -0.0187  0.9053  0.0216  -4.5115   0.0000   0.2137
  -7.800  -0.7065   0.01123   0.00545  -0.0182  0.8939  0.0219  -4.3595   0.0000   0.2138
  -7.600  -0.6859   0.01109   0.00525  -0.0178  0.8818  0.0222  -4.2120   0.0000   0.2138
  -7.400  -0.6656   0.01092   0.00504  -0.0173  0.8690  0.0227  -4.0749   0.0000   0.2139
  -7.200  -0.6452   0.01076   0.00484  -0.0168  0.8557  0.0233  -3.9384   0.0000   0.2139
  -7.000  -0.6245   0.01062   0.00467  -0.0164  0.8417  0.0239  -3.8021   0.0000   0.2138
  -6.600  -0.5826   0.01039   0.00434  -0.0157  0.8124  0.0252  -3.5330   0.0000   0.2133
  -6.400  -0.5614   0.01029   0.00418  -0.0154  0.7969  0.0259  -3.4004   0.0000   0.2130
  -6.200  -0.5401   0.01020   0.00404  -0.0151  0.7808  0.0264  -3.2694   0.0000   0.2125
  -6.000  -0.5191   0.01008   0.00387  -0.0148  0.7642  0.0272  -3.1421   0.0000   0.2121
  -5.800  -0.4980   0.00998   0.00373  -0.0145  0.7472  0.0281  -3.0153   0.0000   0.2116
  -5.600  -0.4767   0.00990   0.00360  -0.0142  0.7296  0.0290  -2.8899   0.0000   0.2110
  -5.400  -0.4554   0.00985   0.00347  -0.0139  0.7070  0.0298  -2.7666   0.0000   0.2103
  -5.200  -0.4343   0.00982   0.00334  -0.0136  0.6788  0.0306  -2.6455   0.0000   0.2096
  -5.000  -0.4132   0.00979   0.00322  -0.0133  0.6498  0.0315  -2.5267   0.0000   0.2088
  -4.800  -0.3919   0.00974   0.00311  -0.0130  0.6273  0.0327  -2.4117   0.0000   0.2077
  -4.600  -0.3702   0.00968   0.00300  -0.0129  0.6108  0.0341  -2.3028   0.0000   0.2063
  -4.400  -0.3483   0.00963   0.00290  -0.0127  0.5950  0.0353  -2.1954   0.0000   0.2046
  -4.200  -0.3265   0.00958   0.00280  -0.0125  0.5789  0.0368  -2.0901   0.0000   0.2026
  -4.000  -0.3046   0.00952   0.00271  -0.0124  0.5638  0.0384  -1.9861   0.0000   0.2004
  -3.800  -0.2827   0.00948   0.00263  -0.0122  0.5488  0.0400  -1.8835   0.0000   0.1976
  -3.600  -0.2607   0.00944   0.00254  -0.0121  0.5331  0.0416  -1.7828   0.0000   0.1945
  -3.400  -0.2388   0.00940   0.00246  -0.0119  0.5176  0.0438  -1.6837   0.0000   0.1907
  -3.200  -0.2167   0.00937   0.00239  -0.0118  0.5037  0.0460  -1.5858   0.0000   0.1860
  -3.000  -0.1947   0.00933   0.00232  -0.0117  0.4892  0.0489  -1.4926   0.0000   0.1803
  -2.800  -0.1726   0.00931   0.00226  -0.0116  0.4738  0.0516  -1.4055   0.0000   0.1730
  -2.600  -0.1506   0.00928   0.00220  -0.0115  0.4588  0.0549  -1.3200   0.0000   0.1636
  -2.400  -0.1285   0.00926   0.00215  -0.0114  0.4453  0.0583  -1.2357   0.0000   0.1508
  -2.200  -0.1064   0.00923   0.00210  -0.0113  0.4317  0.0633  -1.1530   0.0000   0.1328
  -2.000  -0.0844   0.00921   0.00205  -0.0111  0.4171  0.0690  -1.0720   0.0000   0.1055
  -1.800  -0.0624   0.00920   0.00201  -0.0110  0.4025  0.0754  -0.9927   0.0000   0.0590
  -1.600  -0.0404   0.00918   0.00197  -0.0109  0.3891  0.0837  -0.9207   0.0000  -0.0383
  -1.400  -0.0186   0.00913   0.00193  -0.0108  0.3767  0.0969  -0.8503   0.0000  -0.3626
  -1.200   0.0029   0.00905   0.00188  -0.0106  0.3638  0.1198  -0.7818   0.0000   4.0288
  -1.000   0.0193   0.00838   0.00168  -0.0097  0.3518  0.2722  -0.7242   0.0000   0.7698
  -0.800   0.0393   0.00815   0.00163  -0.0094  0.3391  0.3338  -0.7028   0.0000   0.4918
  -0.600   0.0600   0.00800   0.00159  -0.0091  0.3278  0.3806  -0.7294   0.0000   0.4012
  -0.400   0.0814   0.00792   0.00158  -0.0089  0.3174  0.4157  -0.7567   0.0000   0.3572
  -0.200   0.1027   0.00784   0.00157  -0.0087  0.3066  0.4495  -0.7841   0.0000   0.3315
   0.000   0.1242   0.00780   0.00157  -0.0085  0.2958  0.4794  -0.8119   0.0000   0.3146
   0.200   0.1458   0.00776   0.00158  -0.0084  0.2854  0.5072  -0.8411   0.0000   0.3028
   0.400   0.1675   0.00772   0.00160  -0.0082  0.2769  0.5339  -0.8707   0.0000   0.2941
   0.600   0.1893   0.00770   0.00161  -0.0081  0.2695  0.5600  -0.9005   0.0000   0.2874
   0.800   0.2110   0.00768   0.00164  -0.0079  0.2616  0.5869  -0.9304   0.0000   0.2820
   1.000   0.2326   0.00763   0.00166  -0.0078  0.2547  0.6180  -0.9604   0.0000   0.2775
   1.200   0.2540   0.00760   0.00170  -0.0075  0.2481  0.6492  -0.9916   0.0000   0.2736
   1.400   0.2762   0.00760   0.00173  -0.0075  0.2425  0.6676  -1.0239   0.0000   0.2707
   1.600   0.2985   0.00764   0.00177  -0.0074  0.2375  0.6800  -1.0565   0.0000   0.2684
   1.800   0.3209   0.00767   0.00181  -0.0074  0.2329  0.6926  -1.0894   0.0000   0.2664
   2.000   0.3432   0.00771   0.00186  -0.0073  0.2278  0.7054  -1.1223   0.0000   0.2645
   2.200   0.3656   0.00774   0.00190  -0.0073  0.2239  0.7184  -1.1568   0.0000   0.2630
   2.400   0.3879   0.00777   0.00195  -0.0072  0.2201  0.7315  -1.1918   0.0000   0.2616
   2.600   0.4101   0.00782   0.00201  -0.0072  0.2165  0.7447  -1.2269   0.0000   0.2602
   2.800   0.4324   0.00785   0.00206  -0.0071  0.2135  0.7579  -1.2623   0.0000   0.2590
   3.000   0.4547   0.00788   0.00212  -0.0070  0.2101  0.7710  -1.2979   0.0000   0.2579
   3.200   0.4768   0.00793   0.00219  -0.0070  0.2067  0.7840  -1.3349   0.0000   0.2569
   3.400   0.4989   0.00798   0.00226  -0.0069  0.2040  0.7969  -1.3724   0.0000   0.2559
   3.600   0.5211   0.00801   0.00232  -0.0068  0.2017  0.8096  -1.4103   0.0000   0.2550
   3.800   0.5432   0.00806   0.00239  -0.0067  0.1988  0.8221  -1.4484   0.0000   0.2542
   4.000   0.5651   0.00812   0.00247  -0.0066  0.1958  0.8343  -1.4865   0.0000   0.2533
   4.200   0.5871   0.00819   0.00256  -0.0065  0.1932  0.8462  -1.5265   0.0000   0.2525
   4.400   0.6092   0.00823   0.00263  -0.0064  0.1912  0.8577  -1.5671   0.0000   0.2518
   4.600   0.6311   0.00829   0.00272  -0.0063  0.1888  0.8689  -1.6077   0.0000   0.2511
   4.800   0.6529   0.00837   0.00281  -0.0061  0.1861  0.8796  -1.6485   0.0000   0.2503
   5.000   0.6745   0.00846   0.00291  -0.0060  0.1834  0.8901  -1.6899   0.0000   0.2496
   5.200   0.6963   0.00852   0.00300  -0.0058  0.1815  0.9000  -1.7331   0.0000   0.2489
   5.400   0.7180   0.00860   0.00309  -0.0057  0.1795  0.9092  -1.7765   0.0000   0.2483
   5.600   0.7396   0.00869   0.00319  -0.0055  0.1770  0.9179  -1.8199   0.0000   0.2476
   5.800   0.7609   0.00880   0.00331  -0.0053  0.1744  0.9263  -1.8634   0.0000   0.2469
   6.000   0.7824   0.00890   0.00341  -0.0051  0.1724  0.9344  -1.9093   0.0000   0.2463
   6.200   0.8039   0.00899   0.00352  -0.0049  0.1705  0.9416  -1.9556   0.0000   0.2457
   6.400   0.8255   0.00909   0.00363  -0.0047  0.1683  0.9483  -2.0022   0.0000   0.2451
   6.600   0.8468   0.00921   0.00375  -0.0045  0.1658  0.9550  -2.0489   0.0000   0.2445
   6.800   0.8685   0.00935   0.00388  -0.0045  0.1633  0.9605  -2.0983   0.0000   0.2440
   7.000   0.8907   0.00946   0.00399  -0.0045  0.1618  0.9658  -2.1488   0.0000   0.2437
   7.200   0.9131   0.00957   0.00412  -0.0045  0.1597  0.9707  -2.2000   0.0000   0.2434
   7.400   0.9361   0.00971   0.00425  -0.0048  0.1572  0.9746  -2.2531   0.0000   0.2433
   7.600   0.9589   0.00987   0.00439  -0.0050  0.1548  0.9786  -2.3078   0.0000   0.2432
   7.800   0.9826   0.01001   0.00453  -0.0054  0.1528  0.9817  -2.3639   0.0000   0.2432
   8.000   1.0068   0.01015   0.00467  -0.0059  0.1508  0.9845  -2.4220   0.0000   0.2434
   8.200   1.0302   0.01030   0.00482  -0.0063  0.1484  0.9875  -2.4813   0.0000   0.2433
   8.400   1.0550   0.01047   0.00498  -0.0070  0.1459  0.9891  -2.5430   0.0000   0.2436
   8.600   1.0795   0.01065   0.00515  -0.0076  0.1436  0.9911  -2.6066   0.0000   0.2438
   8.800   1.1039   0.01080   0.00531  -0.0082  0.1415  0.9930  -2.6715   0.0000   0.2440
   9.000   1.1294   0.01097   0.00548  -0.0091  0.1391  0.9939  -2.7402   0.0000   0.2443
   9.200   1.1543   0.01118   0.00567  -0.0099  0.1363  0.9950  -2.8101   0.0000   0.2446
   9.400   1.1790   0.01136   0.00585  -0.0106  0.1341  0.9963  -2.8824   0.0000   0.2447
   9.600   1.2034   0.01154   0.00603  -0.0113  0.1317  0.9976  -2.9569   0.0000   0.2448
   9.800   1.2281   0.01174   0.00623  -0.0121  0.1289  0.9985  -3.0354   0.0000   0.2450
  10.000   1.2522   0.01198   0.00645  -0.0128  0.1259  0.9995  -3.1172   0.0000   0.2450
  10.200   1.2729   0.01215   0.00663  -0.0127  0.1238  1.0000  -3.1972   0.0000   0.2445
  10.400   1.2882   0.01233   0.00681  -0.0114  0.1212  1.0000  -3.2711   0.0000   0.2431
  10.600   1.3031   0.01255   0.00701  -0.0102  0.1185  1.0000  -3.3474   0.0000   0.2417
  10.800   1.3187   0.01274   0.00721  -0.0090  0.1161  1.0000  -3.4287   0.0000   0.2404
  11.000   1.3345   0.01294   0.00741  -0.0079  0.1135  1.0000  -3.5148   0.0000   0.2392
  11.200   1.3499   0.01318   0.00764  -0.0068  0.1104  1.0000  -3.6017   0.0000   0.2380
  11.400   1.3659   0.01342   0.00788  -0.0059  0.1078  1.0000  -3.6946   0.0000   0.2369
  11.600   1.3823   0.01365   0.00812  -0.0050  0.1050  1.0000  -3.7912   0.0000   0.2359
  11.800   1.3979   0.01394   0.00840  -0.0040  0.1017  1.0000  -3.8865   0.0000   0.2348
  12.000   1.4142   0.01420   0.00866  -0.0032  0.0991  1.0000  -3.9898   0.0000   0.2339
  12.200   1.4301   0.01449   0.00894  -0.0023  0.0960  1.0000  -4.0936   0.0000   0.2329
  12.400   1.4449   0.01483   0.00928  -0.0012  0.0928  1.0000  -4.1952   0.0000   0.2318
  12.600   1.4601   0.01512   0.00957  -0.0003  0.0900  1.0000  -4.2990   0.0000   0.2308
  12.800   1.4728   0.01547   0.00991   0.0011  0.0869  1.0000  -4.4024   0.0000   0.2295
  13.000   1.4856   0.01582   0.01027   0.0025  0.0842  1.0000  -4.5072   0.0000   0.2282
  13.200   1.4983   0.01619   0.01064   0.0038  0.0811  1.0000  -4.6128   0.0000   0.2270
  13.400   1.5098   0.01665   0.01110   0.0052  0.0779  1.0000  -4.7150   0.0000   0.2257
  13.600   1.5225   0.01705   0.01151   0.0064  0.0751  1.0000  -4.8222   0.0000   0.2246
  13.800   1.5339   0.01755   0.01201   0.0077  0.0721  1.0000  -4.9255   0.0000   0.2234
  14.000   1.5456   0.01804   0.01251   0.0088  0.0695  1.0000  -5.0363   0.0000   0.2223
  14.200   1.5562   0.01861   0.01308   0.0101  0.0663  1.0000  -5.1452   0.0000   0.2211
  14.400   1.5661   0.01923   0.01371   0.0113  0.0634  1.0000  -5.2522   0.0000   0.2200
  14.600   1.5760   0.01988   0.01437   0.0125  0.0605  1.0000  -5.3599   0.0000   0.2189
  14.800   1.5845   0.02062   0.01512   0.0137  0.0578  1.0000  -5.4632   0.0000   0.2178
  15.000   1.5944   0.02131   0.01583   0.0147  0.0556  1.0000  -5.5722   0.0000   0.2168
  15.200   1.6021   0.02216   0.01669   0.0158  0.0532  1.0000  -5.6738   0.0000   0.2157
  15.400   1.6099   0.02304   0.01759   0.0168  0.0510  1.0000  -5.7757   0.0000   0.2147
  15.600   1.6171   0.02399   0.01857   0.0178  0.0487  1.0000  -5.8761   0.0000   0.2137
  16.000   1.6284   0.02625   0.02087   0.0194  0.0444  1.0000  -6.0724   0.0000   0.2119
  16.200   1.6327   0.02755   0.02220   0.0202  0.0423  1.0000  -6.1679   0.0000   0.2110
  16.400   1.6361   0.02900   0.02368   0.0208  0.0406  1.0000  -6.2593   0.0000   0.2102
  16.600   1.6409   0.03038   0.02510   0.0212  0.0392  1.0000  -6.3573   0.0000   0.2095
  16.800   1.6438   0.03198   0.02675   0.0215  0.0378  1.0000  -6.4469   0.0000   0.2088
  17.000   1.6444   0.03385   0.02866   0.0218  0.0364  1.0000  -6.5261   0.0000   0.2082
  17.200   1.6455   0.03576   0.03061   0.0218  0.0352  1.0000  -6.6071   0.0000   0.2076
  17.400   1.6465   0.03774   0.03265   0.0218  0.0342  1.0000  -6.6875   0.0000   0.2072
  17.600   1.6453   0.03999   0.03496   0.0216  0.0332  1.0000  -6.7573   0.0000   0.2067
  17.800   1.6415   0.04259   0.03762   0.0212  0.0321  1.0000  -6.8146   0.0000   0.2064
  18.000   1.6359   0.04551   0.04060   0.0207  0.0312  1.0000  -6.8615   0.0000   0.2061
  18.200   1.6309   0.04844   0.04360   0.0200  0.0304  1.0000  -6.9108   0.0000   0.2060
  18.400   1.6244   0.05159   0.04683   0.0192  0.0297  1.0000  -6.9521   0.0000   0.2059
  18.600   1.6156   0.05512   0.05044   0.0181  0.0290  1.0000  -6.9805   0.0000   0.2059
  18.800   1.6042   0.05908   0.05448   0.0169  0.0284  1.0000  -6.9940   0.0000   0.2060
  19.000   1.5897   0.06349   0.05898   0.0154  0.0278  1.0000  -6.9901   0.0000   0.2062
  19.200   1.5726   0.06833   0.06391   0.0137  0.0274  1.0000  -6.9709   0.0000   0.2066
  19.400   1.5535   0.07356   0.06924   0.0118  0.0270  1.0000  -6.9381   0.0000   0.2072
  19.600   1.5323   0.07913   0.07492   0.0097  0.0267  1.0000  -6.8915   0.0000   0.2078
  19.800   1.5094   0.08504   0.08093   0.0074  0.0264  1.0000  -6.8329   0.0000   0.2087
  20.000   1.4866   0.09104   0.08705   0.0050  0.0263  1.0000  -6.7711   0.0000   0.2096
  20.200   1.4628   0.09724   0.09335   0.0025  0.0261  1.0000  -6.7006   0.0000   0.2107
  20.400   1.4388   0.10353   0.09975  -0.0001  0.0260  1.0000  -6.6257   0.0000   0.2120
  20.600   1.4147   0.10999   0.10632  -0.0029  0.0258  1.0000  -6.5453   0.0000   0.2134
  20.800   1.3930   0.11613   0.11255  -0.0057  0.0256  1.0000  -6.4752   0.0000   0.2149
  21.000   1.3720   0.12219   0.11871  -0.0085  0.0253  1.0000  -6.4059   0.0000   0.2165
  21.200   1.3528   0.12811   0.12471  -0.0114  0.0250  1.0000  -6.3426   0.0000   0.2181
  21.400   1.3359   0.13374   0.13041  -0.0142  0.0247  1.0000  -6.2896   0.0000   0.2198
  21.600   1.3211   0.13909   0.13583  -0.0170  0.0242  1.0000  -6.2458   0.0000   0.2216
  21.800   1.3074   0.14425   0.14105  -0.0198  0.0238  1.0000  -6.2069   0.0000   0.2233
  22.000   1.2941   0.14946   0.14631  -0.0227  0.0233  1.0000  -6.1657   0.0000   0.2252
  22.200   1.2822   0.15450   0.15141  -0.0256  0.0228  1.0000  -6.1308   0.0000   0.2271
  22.400   1.2738   0.15898   0.15593  -0.0282  0.0223  1.0000  -6.1195   0.0000   0.2288
  22.600   1.2671   0.16319   0.16020  -0.0308  0.0219  1.0000  -6.1182   0.0000   0.2304
  22.800   1.2628   0.16696   0.16401  -0.0332  0.0215  1.0000  -6.1334   0.0000   0.2318
  23.000   1.2570   0.17107   0.16817  -0.0358  0.0211  1.0000  -6.1341   0.0000   0.2334
  23.200   1.2534   0.17476   0.17189  -0.0382  0.0206  1.0000  -6.1500   0.0000   0.2349
  23.400   1.2473   0.17894   0.17611  -0.0409  0.0201  1.0000  -6.1445   0.0000   0.2367
  23.600   1.2438   0.18266   0.17987  -0.0435  0.0196  1.0000  -6.1573   0.0000   0.2383
  23.800   1.2381   0.18689   0.18413  -0.0464  0.0191  1.0000  -6.1489   0.0000   0.2403
  24.000   1.2352   0.19059   0.18786  -0.0489  0.0185  1.0000  -6.1613   0.0000   0.2419
  24.200   1.2331   0.19412   0.19143  -0.0515  0.0182  1.0000  -6.1797   0.0000   0.2435
  24.400   1.2327   0.19733   0.19467  -0.0538  0.0179  1.0000  -6.2107   0.0000   0.2448
  24.600   1.2327   0.20046   0.19783  -0.0562  0.0175  1.0000  -6.2445   0.0000   0.2461
  24.800   1.2308   0.20402   0.20143  -0.0588  0.0171  1.0000  -6.2590   0.0000   0.2478
  25.000   1.2300   0.20734   0.20478  -0.0613  0.0167  1.0000  -6.2830   0.0000   0.2493


