xflr5 v6.47

 Calculated polar for: NACA 23015

 1 1 Reynolds number fixed          Mach number fixed         

 xtrf =   1.000 (top)        1.000 (bottom)
 Mach =   0.000     Re =     0.600 e 6     Ncrit =   5.000

  alpha     CL        CD       CDp       Cm    Top Xtr Bot Xtr   Cpmin    Chinge    XCp    
 ------- -------- --------- --------- -------- ------- ------- -------- --------- ---------
 -15.000  -1.1711   0.03739   0.03237  -0.0509  1.0000  0.0167  -9.2899   0.0000   0.1868
 -14.800  -1.1672   0.03584   0.03074  -0.0505  1.0000  0.0168  -9.1846   0.0000   0.1873
 -14.600  -1.1625   0.03441   0.02923  -0.0501  1.0000  0.0169  -9.0740   0.0000   0.1879
 -14.400  -1.1572   0.03308   0.02783  -0.0495  1.0000  0.0171  -8.9595   0.0000   0.1886
 -14.200  -1.1512   0.03185   0.02653  -0.0488  1.0000  0.0172  -8.8409   0.0000   0.1893
 -14.000  -1.1447   0.03071   0.02531  -0.0480  1.0000  0.0174  -8.7188   0.0000   0.1902
 -13.800  -1.1376   0.02966   0.02418  -0.0470  1.0000  0.0175  -8.5934   0.0000   0.1911
 -13.600  -1.1300   0.02868   0.02312  -0.0460  1.0000  0.0177  -8.4647   0.0000   0.1920
 -13.400  -1.1218   0.02777   0.02214  -0.0449  1.0000  0.0178  -8.3333   0.0000   0.1930
 -13.200  -1.1131   0.02692   0.02122  -0.0437  1.0000  0.0180  -8.1992   0.0000   0.1941
 -13.000  -1.1039   0.02614   0.02037  -0.0425  1.0000  0.0181  -8.0627   0.0000   0.1952
 -12.800  -1.0943   0.02541   0.01957  -0.0412  1.0000  0.0183  -7.9239   0.0000   0.1963
 -12.600  -1.0843   0.02474   0.01883  -0.0398  1.0000  0.0184  -7.7833   0.0000   0.1976
 -12.400  -1.0753   0.02403   0.01807  -0.0383  1.0000  0.0186  -7.6521   0.0000   0.1990
 -12.200  -1.0674   0.02331   0.01731  -0.0365  1.0000  0.0188  -7.5328   0.0000   0.2007
 -12.000  -1.0586   0.02271   0.01669  -0.0346  1.0000  0.0190  -7.4069   0.0000   0.2025
 -11.800  -1.0496   0.02220   0.01615  -0.0326  1.0000  0.0192  -7.2785   0.0000   0.2044
 -11.600  -1.0404   0.02174   0.01566  -0.0306  1.0000  0.0194  -7.1488   0.0000   0.2063
 -11.400  -1.0297   0.02130   0.01520  -0.0288  1.0000  0.0196  -7.0132   0.0000   0.2080
 -11.200  -1.0185   0.02090   0.01476  -0.0270  1.0000  0.0198  -6.8759   0.0000   0.2097
 -11.000  -1.0074   0.02052   0.01436  -0.0252  1.0000  0.0201  -6.7400   0.0000   0.2115
 -10.800  -0.9964   0.02016   0.01397  -0.0233  1.0000  0.0204  -6.6055   0.0000   0.2134
 -10.600  -0.9855   0.01981   0.01360  -0.0213  1.0000  0.0207  -6.4726   0.0000   0.2154
 -10.400  -0.9749   0.01947   0.01323  -0.0193  1.0000  0.0210  -6.3423   0.0000   0.2175
 -10.200  -0.9645   0.01914   0.01286  -0.0172  1.0000  0.0213  -6.2145   0.0000   0.2197
 -10.000  -0.9446   0.01873   0.01241  -0.0170  0.9987  0.0216  -6.0514   0.0000   0.2197
  -9.800  -0.9203   0.01829   0.01192  -0.0177  0.9969  0.0220  -5.8733   0.0000   0.2186
  -9.600  -0.8960   0.01786   0.01146  -0.0184  0.9947  0.0223  -5.6974   0.0000   0.2175
  -9.400  -0.8722   0.01731   0.01090  -0.0191  0.9927  0.0227  -5.5270   0.0000   0.2163
  -9.200  -0.8485   0.01688   0.01046  -0.0197  0.9898  0.0232  -5.3547   0.0000   0.2152
  -9.000  -0.8232   0.01649   0.01006  -0.0206  0.9877  0.0236  -5.1774   0.0000   0.2136
  -8.800  -0.7989   0.01613   0.00969  -0.0212  0.9847  0.0241  -5.0063   0.0000   0.2122
  -8.600  -0.7744   0.01578   0.00932  -0.0218  0.9815  0.0246  -4.8375   0.0000   0.2107
  -8.400  -0.7509   0.01544   0.00896  -0.0222  0.9775  0.0251  -4.6748   0.0000   0.2094
  -8.200  -0.7269   0.01510   0.00860  -0.0227  0.9735  0.0256  -4.5131   0.0000   0.2079
  -8.000  -0.7042   0.01480   0.00826  -0.0228  0.9682  0.0261  -4.3577   0.0000   0.2068
  -7.800  -0.6809   0.01445   0.00791  -0.0232  0.9633  0.0267  -4.2023   0.0000   0.2053
  -7.600  -0.6592   0.01413   0.00759  -0.0231  0.9568  0.0275  -4.0537   0.0000   0.2044
  -7.400  -0.6375   0.01387   0.00732  -0.0230  0.9498  0.0282  -3.9146   0.0000   0.2035
  -7.200  -0.6158   0.01361   0.00705  -0.0229  0.9424  0.0289  -3.7786   0.0000   0.2025
  -7.000  -0.5946   0.01336   0.00678  -0.0226  0.9342  0.0297  -3.6471   0.0000   0.2018
  -6.800  -0.5740   0.01313   0.00650  -0.0222  0.9249  0.0303  -3.5194   0.0000   0.2013
  -6.600  -0.5538   0.01290   0.00624  -0.0217  0.9147  0.0310  -3.3944   0.0000   0.2009
  -6.400  -0.5341   0.01264   0.00596  -0.0211  0.9038  0.0318  -3.2716   0.0000   0.2006
  -6.200  -0.5140   0.01244   0.00573  -0.0206  0.8922  0.0327  -3.1481   0.0000   0.2002
  -6.000  -0.4938   0.01225   0.00551  -0.0200  0.8799  0.0337  -3.0262   0.0000   0.1997
  -5.800  -0.4734   0.01209   0.00530  -0.0195  0.8669  0.0347  -2.9058   0.0000   0.1992
  -5.600  -0.4530   0.01194   0.00509  -0.0190  0.8533  0.0358  -2.7870   0.0000   0.1985
  -5.400  -0.4329   0.01176   0.00487  -0.0185  0.8388  0.0371  -2.6701   0.0000   0.1978
  -5.200  -0.4124   0.01161   0.00469  -0.0180  0.8236  0.0384  -2.5536   0.0000   0.1969
  -5.000  -0.3918   0.01149   0.00450  -0.0175  0.8076  0.0397  -2.4393   0.0000   0.1958
  -4.800  -0.3712   0.01138   0.00432  -0.0171  0.7907  0.0410  -2.3327   0.0000   0.1946
  -4.600  -0.3509   0.01126   0.00414  -0.0165  0.7718  0.0426  -2.2304   0.0000   0.1934
  -4.400  -0.3306   0.01119   0.00398  -0.0160  0.7478  0.0444  -2.1293   0.0000   0.1921
  -4.200  -0.3101   0.01114   0.00382  -0.0155  0.7222  0.0462  -2.0297   0.0000   0.1905
  -4.000  -0.2898   0.01106   0.00368  -0.0151  0.6988  0.0485  -1.9314   0.0000   0.1886
  -3.800  -0.2688   0.01100   0.00355  -0.0147  0.6798  0.0510  -1.8333   0.0000   0.1858
  -3.600  -0.2478   0.01092   0.00341  -0.0144  0.6625  0.0534  -1.7370   0.0000   0.1824
  -3.400  -0.2267   0.01086   0.00329  -0.0140  0.6455  0.0565  -1.6417   0.0000   0.1783
  -3.200  -0.2056   0.01080   0.00318  -0.0137  0.6287  0.0599  -1.5479   0.0000   0.1733
  -3.000  -0.1843   0.01074   0.00308  -0.0135  0.6121  0.0642  -1.4601   0.0000   0.1668
  -2.800  -0.1631   0.01067   0.00298  -0.0132  0.5957  0.0692  -1.3763   0.0000   0.1587
  -2.600  -0.1418   0.01062   0.00288  -0.0129  0.5790  0.0750  -1.2937   0.0000   0.1482
  -2.400  -0.1207   0.01056   0.00279  -0.0126  0.5624  0.0826  -1.2126   0.0000   0.1339
  -2.200  -0.0995   0.01049   0.00270  -0.0124  0.5465  0.0935  -1.1329   0.0000   0.1136
  -2.000  -0.0787   0.01038   0.00261  -0.0121  0.5309  0.1113  -1.0552   0.0000   0.0835
  -1.800  -0.0597   0.01007   0.00245  -0.0115  0.5152  0.1673  -0.9842   0.0000   0.0417
  -1.600  -0.0454   0.00924   0.00221  -0.0104  0.5007  0.3380  -0.9267   0.0000   0.0039
  -1.400  -0.0261   0.00901   0.00214  -0.0099  0.4856  0.3965  -0.8608   0.0000  -0.1532
  -1.200  -0.0060   0.00886   0.00210  -0.0095  0.4711  0.4416  -0.7947   0.0000  -1.3982
  -1.000   0.0143   0.00875   0.00207  -0.0091  0.4560  0.4793  -0.7291   0.0000   0.9059
  -0.800   0.0349   0.00868   0.00205  -0.0087  0.4406  0.5130  -0.6988   0.0000   0.5038
  -0.600   0.0555   0.00863   0.00203  -0.0083  0.4254  0.5435  -0.7254   0.0000   0.4000
  -0.400   0.0763   0.00859   0.00203  -0.0080  0.4113  0.5720  -0.7522   0.0000   0.3524
  -0.200   0.0971   0.00857   0.00204  -0.0076  0.3973  0.5997  -0.7792   0.0000   0.3252
   0.000   0.1178   0.00855   0.00205  -0.0073  0.3830  0.6264  -0.8063   0.0000   0.3074
   0.200   0.1386   0.00854   0.00207  -0.0069  0.3689  0.6527  -0.8346   0.0000   0.2949
   0.400   0.1591   0.00853   0.00210  -0.0064  0.3556  0.6820  -0.8632   0.0000   0.2853
   0.600   0.1796   0.00852   0.00215  -0.0060  0.3435  0.7112  -0.8919   0.0000   0.2778
   0.800   0.2007   0.00856   0.00219  -0.0057  0.3316  0.7318  -0.9212   0.0000   0.2724
   1.000   0.2222   0.00862   0.00223  -0.0054  0.3198  0.7454  -0.9510   0.0000   0.2684
   1.200   0.2437   0.00869   0.00228  -0.0052  0.3086  0.7588  -0.9819   0.0000   0.2650
   1.400   0.2652   0.00876   0.00233  -0.0050  0.2983  0.7722  -1.0134   0.0000   0.2622
   1.600   0.2869   0.00881   0.00238  -0.0047  0.2895  0.7854  -1.0452   0.0000   0.2599
   1.800   0.3084   0.00888   0.00245  -0.0045  0.2813  0.7985  -1.0771   0.0000   0.2578
   2.200   0.3514   0.00903   0.00259  -0.0040  0.2657  0.8241  -1.1425   0.0000   0.2543
   2.400   0.3729   0.00912   0.00267  -0.0038  0.2594  0.8364  -1.1764   0.0000   0.2528
   2.600   0.3945   0.00919   0.00275  -0.0035  0.2536  0.8484  -1.2107   0.0000   0.2515
   2.800   0.4159   0.00929   0.00284  -0.0033  0.2483  0.8600  -1.2451   0.0000   0.2503
   3.000   0.4375   0.00937   0.00293  -0.0030  0.2430  0.8711  -1.2798   0.0000   0.2492
   3.400   0.4806   0.00957   0.00312  -0.0026  0.2340  0.8921  -1.3523   0.0000   0.2473
   3.600   0.5021   0.00968   0.00323  -0.0023  0.2300  0.9021  -1.3892   0.0000   0.2464
   3.800   0.5236   0.00981   0.00334  -0.0021  0.2262  0.9112  -1.4264   0.0000   0.2456
   4.000   0.5456   0.00991   0.00345  -0.0019  0.2226  0.9195  -1.4642   0.0000   0.2450
   4.200   0.5675   0.01003   0.00356  -0.0018  0.2189  0.9276  -1.5035   0.0000   0.2445
   4.400   0.5891   0.01018   0.00369  -0.0016  0.2156  0.9355  -1.5431   0.0000   0.2439
   4.600   0.6121   0.01029   0.00381  -0.0017  0.2129  0.9420  -1.5843   0.0000   0.2438
   4.800   0.6349   0.01042   0.00393  -0.0018  0.2097  0.9482  -1.6258   0.0000   0.2437
   5.000   0.6573   0.01057   0.00406  -0.0018  0.2065  0.9547  -1.6673   0.0000   0.2434
   5.200   0.6816   0.01073   0.00420  -0.0023  0.2037  0.9592  -1.7127   0.0000   0.2438
   5.400   0.7049   0.01086   0.00433  -0.0025  0.2011  0.9647  -1.7572   0.0000   0.2439
   5.600   0.7300   0.01101   0.00447  -0.0032  0.1983  0.9683  -1.8042   0.0000   0.2445
   5.800   0.7534   0.01117   0.00462  -0.0035  0.1954  0.9730  -1.8496   0.0000   0.2446
   6.000   0.7793   0.01134   0.00478  -0.0043  0.1928  0.9759  -1.9000   0.0000   0.2453
   6.200   0.8035   0.01148   0.00493  -0.0048  0.1904  0.9798  -1.9490   0.0000   0.2455
   6.400   0.8299   0.01165   0.00509  -0.0058  0.1877  0.9821  -2.0009   0.0000   0.2464
   6.600   0.8561   0.01184   0.00526  -0.0068  0.1850  0.9844  -2.0535   0.0000   0.2471
   6.800   0.8812   0.01201   0.00543  -0.0075  0.1825  0.9872  -2.1069   0.0000   0.2475
   7.000   0.9085   0.01217   0.00560  -0.0088  0.1801  0.9886  -2.1633   0.0000   0.2483
   7.200   0.9349   0.01234   0.00577  -0.0098  0.1775  0.9905  -2.2192   0.0000   0.2490
   7.400   0.9601   0.01254   0.00596  -0.0106  0.1749  0.9929  -2.2764   0.0000   0.2493
   7.600   0.9866   0.01274   0.00615  -0.0117  0.1726  0.9943  -2.3357   0.0000   0.2499
   7.800   1.0128   0.01291   0.00634  -0.0127  0.1703  0.9960  -2.3952   0.0000   0.2504
   8.000   1.0387   0.01309   0.00653  -0.0137  0.1677  0.9977  -2.4574   0.0000   0.2507
   8.200   1.0646   0.01330   0.00673  -0.0147  0.1651  0.9992  -2.5202   0.0000   0.2511
   8.400   1.0855   0.01351   0.00694  -0.0147  0.1630  1.0000  -2.5775   0.0000   0.2505
   8.600   1.1011   0.01365   0.00710  -0.0134  0.1612  1.0000  -2.6290   0.0000   0.2490
   8.800   1.1164   0.01381   0.00728  -0.0122  0.1590  1.0000  -2.6806   0.0000   0.2474
   9.000   1.1316   0.01399   0.00747  -0.0109  0.1569  1.0000  -2.7343   0.0000   0.2459
   9.200   1.1464   0.01419   0.00767  -0.0096  0.1549  1.0000  -2.7883   0.0000   0.2443
   9.400   1.1615   0.01439   0.00787  -0.0084  0.1530  1.0000  -2.8446   0.0000   0.2429
   9.600   1.1773   0.01456   0.00807  -0.0073  0.1509  1.0000  -2.9038   0.0000   0.2415
   9.800   1.1928   0.01476   0.00828  -0.0061  0.1487  1.0000  -2.9650   0.0000   0.2402
  10.000   1.2081   0.01498   0.00851  -0.0050  0.1465  1.0000  -3.0278   0.0000   0.2389
  10.200   1.2230   0.01523   0.00876  -0.0038  0.1444  1.0000  -3.0928   0.0000   0.2375
  10.400   1.2392   0.01544   0.00900  -0.0028  0.1424  1.0000  -3.1640   0.0000   0.2364
  10.600   1.2554   0.01566   0.00924  -0.0019  0.1401  1.0000  -3.2385   0.0000   0.2353
  10.800   1.2712   0.01591   0.00951  -0.0009  0.1377  1.0000  -3.3154   0.0000   0.2342
  11.000   1.2862   0.01621   0.00981   0.0002  0.1354  1.0000  -3.3947   0.0000   0.2331
  11.200   1.3022   0.01646   0.01009   0.0011  0.1332  1.0000  -3.4796   0.0000   0.2321
  11.400   1.3178   0.01672   0.01038   0.0020  0.1307  1.0000  -3.5665   0.0000   0.2310
  11.600   1.3318   0.01702   0.01069   0.0032  0.1282  1.0000  -3.6524   0.0000   0.2298
  11.800   1.3444   0.01737   0.01104   0.0046  0.1258  1.0000  -3.7385   0.0000   0.2285
  12.000   1.3587   0.01765   0.01136   0.0057  0.1234  1.0000  -3.8295   0.0000   0.2273
  12.200   1.3722   0.01799   0.01173   0.0069  0.1207  1.0000  -3.9213   0.0000   0.2262
  12.400   1.3847   0.01840   0.01214   0.0082  0.1181  1.0000  -4.0144   0.0000   0.2250
  12.600   1.3981   0.01878   0.01255   0.0092  0.1157  1.0000  -4.1110   0.0000   0.2239
  12.800   1.4113   0.01919   0.01299   0.0103  0.1129  1.0000  -4.2078   0.0000   0.2229
  13.000   1.4234   0.01967   0.01348   0.0114  0.1101  1.0000  -4.3021   0.0000   0.2218
  13.200   1.4356   0.02016   0.01400   0.0124  0.1076  1.0000  -4.4033   0.0000   0.2207
  13.400   1.4479   0.02066   0.01453   0.0134  0.1048  1.0000  -4.5056   0.0000   0.2198
  13.600   1.4588   0.02126   0.01514   0.0145  0.1020  1.0000  -4.6040   0.0000   0.2187
  13.800   1.4697   0.02187   0.01579   0.0155  0.0995  1.0000  -4.7032   0.0000   0.2177
  14.000   1.4807   0.02250   0.01646   0.0164  0.0966  1.0000  -4.8030   0.0000   0.2168
  14.200   1.4898   0.02327   0.01724   0.0174  0.0938  1.0000  -4.8973   0.0000   0.2158
  14.400   1.4995   0.02402   0.01803   0.0183  0.0913  1.0000  -4.9983   0.0000   0.2149
  14.600   1.5085   0.02485   0.01890   0.0191  0.0885  1.0000  -5.0995   0.0000   0.2140
  14.800   1.5155   0.02586   0.01992   0.0200  0.0858  1.0000  -5.1934   0.0000   0.2131
  15.000   1.5237   0.02681   0.02092   0.0207  0.0832  1.0000  -5.2925   0.0000   0.2122
  15.200   1.5302   0.02793   0.02208   0.0214  0.0803  1.0000  -5.3856   0.0000   0.2114
  15.400   1.5350   0.02924   0.02341   0.0220  0.0778  1.0000  -5.4718   0.0000   0.2106
  15.600   1.5412   0.03047   0.02470   0.0225  0.0754  1.0000  -5.5639   0.0000   0.2099
  15.800   1.5450   0.03196   0.02623   0.0229  0.0729  1.0000  -5.6468   0.0000   0.2092
  16.000   1.5473   0.03365   0.02796   0.0232  0.0706  1.0000  -5.7231   0.0000   0.2085
  16.200   1.5504   0.03532   0.02969   0.0233  0.0682  1.0000  -5.8027   0.0000   0.2080
  16.400   1.5506   0.03733   0.03176   0.0234  0.0658  1.0000  -5.8701   0.0000   0.2075
  16.600   1.5494   0.03957   0.03404   0.0232  0.0638  1.0000  -5.9350   0.0000   0.2070
  16.800   1.5488   0.04180   0.03634   0.0230  0.0617  1.0000  -6.0029   0.0000   0.2067
  17.000   1.5454   0.04441   0.03902   0.0226  0.0598  1.0000  -6.0573   0.0000   0.2064
  17.400   1.5345   0.05036   0.04511   0.0212  0.0567  1.0000  -6.1445   0.0000   0.2061
  17.600   1.5277   0.05362   0.04845   0.0203  0.0552  1.0000  -6.1800   0.0000   0.2061
  17.800   1.5181   0.05731   0.05222   0.0192  0.0538  1.0000  -6.2011   0.0000   0.2062
  18.000   1.5054   0.06149   0.05649   0.0178  0.0527  1.0000  -6.2052   0.0000   0.2065
  18.200   1.4914   0.06592   0.06101   0.0162  0.0517  1.0000  -6.2008   0.0000   0.2068
  18.400   1.4780   0.07036   0.06555   0.0146  0.0507  1.0000  -6.1975   0.0000   0.2073
  18.600   1.4623   0.07520   0.07050   0.0128  0.0498  1.0000  -6.1803   0.0000   0.2078
  18.800   1.4443   0.08041   0.07581   0.0108  0.0489  1.0000  -6.1489   0.0000   0.2086
  19.000   1.4245   0.08597   0.08147   0.0086  0.0481  1.0000  -6.1054   0.0000   0.2095
  19.200   1.4031   0.09186   0.08745   0.0062  0.0474  1.0000  -6.0508   0.0000   0.2105
  19.400   1.3807   0.09795   0.09364   0.0036  0.0467  1.0000  -5.9870   0.0000   0.2118
  19.600   1.3600   0.10388   0.09966   0.0011  0.0460  1.0000  -5.9292   0.0000   0.2131
  19.800   1.3428   0.10935   0.10523  -0.0013  0.0453  1.0000  -5.8874   0.0000   0.2143
  20.000   1.3260   0.11481   0.11076  -0.0038  0.0444  1.0000  -5.8450   0.0000   0.2157
  20.200   1.3095   0.12024   0.11628  -0.0063  0.0435  1.0000  -5.8018   0.0000   0.2171
  20.400   1.2936   0.12568   0.12178  -0.0089  0.0425  1.0000  -5.7586   0.0000   0.2187
  20.600   1.2781   0.13115   0.12730  -0.0117  0.0416  1.0000  -5.7140   0.0000   0.2204
  20.800   1.2642   0.13642   0.13263  -0.0144  0.0407  1.0000  -5.6755   0.0000   0.2222
  21.000   1.2558   0.14073   0.13701  -0.0167  0.0397  1.0000  -5.6692   0.0000   0.2236
  21.200   1.2472   0.14515   0.14147  -0.0191  0.0386  1.0000  -5.6590   0.0000   0.2251
  21.400   1.2377   0.14978   0.14615  -0.0217  0.0375  1.0000  -5.6404   0.0000   0.2268
  21.600   1.2288   0.15438   0.15079  -0.0243  0.0365  1.0000  -5.6224   0.0000   0.2286
  21.800   1.2211   0.15880   0.15525  -0.0269  0.0355  1.0000  -5.6099   0.0000   0.2303
  22.000   1.2176   0.16250   0.15899  -0.0292  0.0346  1.0000  -5.6236   0.0000   0.2317
  22.200   1.2134   0.16632   0.16285  -0.0316  0.0336  1.0000  -5.6317   0.0000   0.2333
  22.400   1.2088   0.17026   0.16683  -0.0341  0.0326  1.0000  -5.6342   0.0000   0.2349
  22.600   1.2039   0.17428   0.17087  -0.0366  0.0317  1.0000  -5.6321   0.0000   0.2367
  22.800   1.1993   0.17826   0.17488  -0.0393  0.0308  1.0000  -5.6309   0.0000   0.2384
  23.000   1.1985   0.18153   0.17819  -0.0415  0.0301  1.0000  -5.6561   0.0000   0.2398
  23.200   1.1976   0.18480   0.18150  -0.0437  0.0292  1.0000  -5.6848   0.0000   0.2411
  23.400   1.1955   0.18839   0.18512  -0.0462  0.0284  1.0000  -5.7010   0.0000   0.2428
  23.600   1.1934   0.19197   0.18873  -0.0487  0.0276  1.0000  -5.7165   0.0000   0.2444
  23.800   1.1913   0.19562   0.19239  -0.0513  0.0268  1.0000  -5.7290   0.0000   0.2461
  24.000   1.1903   0.19903   0.19583  -0.0538  0.0261  1.0000  -5.7495   0.0000   0.2477
  24.200   1.1912   0.20204   0.19888  -0.0560  0.0254  1.0000  -5.7856   0.0000   0.2490
  24.400   1.1912   0.20524   0.20212  -0.0584  0.0246  1.0000  -5.8128   0.0000   0.2505
  24.600   1.1904   0.20865   0.20556  -0.0610  0.0239  1.0000  -5.8307   0.0000   0.2521
  24.800   1.1900   0.21199   0.20891  -0.0636  0.0232  1.0000  -5.8515   0.0000   0.2537
  25.000   1.1892   0.21545   0.21238  -0.0662  0.0225  1.0000  -5.8660   0.0000   0.2554


