xflr5 v6.47

 Calculated polar for: NACA 23015

 1 1 Reynolds number fixed          Mach number fixed         

 xtrf =   1.000 (top)        1.000 (bottom)
 Mach =   0.000     Re =     2.200 e 6     Ncrit =   5.000

  alpha     CL        CD       CDp       Cm    Top Xtr Bot Xtr   Cpmin    Chinge    XCp    
 ------- -------- --------- --------- -------- ------- ------- -------- --------- ---------
 -15.000  -1.3762   0.02026   0.01542  -0.0382  1.0000  0.0119  -10.8756   0.0000   0.2033
 -14.800  -1.3651   0.01971   0.01484  -0.0368  1.0000  0.0120  -10.7017   0.0000   0.2044
 -14.600  -1.3538   0.01918   0.01428  -0.0354  1.0000  0.0122  -10.5279   0.0000   0.2055
 -14.400  -1.3421   0.01870   0.01377  -0.0340  1.0000  0.0124  -10.3518   0.0000   0.2067
 -14.200  -1.3302   0.01825   0.01330  -0.0325  1.0000  0.0126  -10.1743   0.0000   0.2078
 -14.000  -1.3181   0.01785   0.01288  -0.0310  1.0000  0.0128  -9.9964   0.0000   0.2091
 -13.800  -1.3061   0.01748   0.01249  -0.0294  1.0000  0.0130  -9.8191   0.0000   0.2104
 -13.600  -1.2936   0.01713   0.01213  -0.0278  1.0000  0.0132  -9.6400   0.0000   0.2117
 -13.400  -1.2794   0.01679   0.01178  -0.0265  1.0000  0.0133  -9.4537   0.0000   0.2128
 -13.200  -1.2649   0.01646   0.01144  -0.0252  1.0000  0.0135  -9.2673   0.0000   0.2139
 -13.000  -1.2506   0.01615   0.01111  -0.0239  1.0000  0.0136  -9.0833   0.0000   0.2150
 -12.800  -1.2370   0.01586   0.01081  -0.0224  1.0000  0.0138  -8.9037   0.0000   0.2163
 -12.600  -1.2239   0.01559   0.01052  -0.0207  1.0000  0.0139  -8.7284   0.0000   0.2177
 -12.400  -1.2052   0.01528   0.01020  -0.0202  0.9993  0.0141  -8.5361   0.0000   0.2182
 -12.200  -1.1824   0.01496   0.00987  -0.0206  0.9982  0.0142  -8.3283   0.0000   0.2178
 -12.000  -1.1592   0.01464   0.00954  -0.0210  0.9972  0.0144  -8.1209   0.0000   0.2174
 -11.800  -1.1365   0.01434   0.00923  -0.0213  0.9956  0.0145  -7.9174   0.0000   0.2170
 -11.600  -1.1134   0.01405   0.00893  -0.0216  0.9939  0.0147  -7.7144   0.0000   0.2165
 -11.400  -1.0908   0.01378   0.00864  -0.0219  0.9916  0.0148  -7.5154   0.0000   0.2161
 -11.200  -1.0684   0.01351   0.00837  -0.0220  0.9887  0.0149  -7.3194   0.0000   0.2158
 -11.000  -1.0460   0.01325   0.00810  -0.0222  0.9855  0.0150  -7.1254   0.0000   0.2154
 -10.800  -1.0243   0.01299   0.00782  -0.0221  0.9815  0.0151  -6.9378   0.0000   0.2152
 -10.600  -1.0037   0.01270   0.00752  -0.0219  0.9765  0.0155  -6.7579   0.0000   0.2153
 -10.400  -0.9832   0.01245   0.00726  -0.0216  0.9711  0.0158  -6.5795   0.0000   0.2154
 -10.200  -0.9635   0.01221   0.00701  -0.0211  0.9645  0.0161  -6.4051   0.0000   0.2156
 -10.000  -0.9441   0.01200   0.00678  -0.0205  0.9570  0.0164  -6.2333   0.0000   0.2160
  -9.800  -0.9247   0.01179   0.00656  -0.0199  0.9490  0.0167  -6.0631   0.0000   0.2164
  -9.600  -0.9051   0.01159   0.00635  -0.0193  0.9405  0.0170  -5.8943   0.0000   0.2168
  -9.400  -0.8854   0.01141   0.00614  -0.0187  0.9313  0.0173  -5.7266   0.0000   0.2172
  -9.200  -0.8654   0.01124   0.00593  -0.0182  0.9216  0.0176  -5.5600   0.0000   0.2175
  -9.000  -0.8452   0.01107   0.00574  -0.0177  0.9111  0.0179  -5.3943   0.0000   0.2177
  -8.800  -0.8248   0.01092   0.00555  -0.0173  0.9000  0.0181  -5.2295   0.0000   0.2179
  -8.600  -0.8042   0.01078   0.00537  -0.0169  0.8883  0.0183  -5.0661   0.0000   0.2181
  -8.400  -0.7836   0.01064   0.00519  -0.0165  0.8760  0.0185  -4.9047   0.0000   0.2182
  -8.200  -0.7631   0.01048   0.00498  -0.0160  0.8630  0.0191  -4.7475   0.0000   0.2183
  -8.000  -0.7423   0.01033   0.00480  -0.0157  0.8495  0.0196  -4.5906   0.0000   0.2184
  -7.800  -0.7215   0.01020   0.00463  -0.0153  0.8354  0.0201  -4.4347   0.0000   0.2184
  -7.600  -0.7004   0.01007   0.00446  -0.0150  0.8208  0.0205  -4.2825   0.0000   0.2184
  -7.400  -0.6793   0.00996   0.00431  -0.0147  0.8058  0.0210  -4.1395   0.0000   0.2183
  -7.200  -0.6580   0.00986   0.00415  -0.0144  0.7904  0.0214  -3.9980   0.0000   0.2182
  -7.000  -0.6366   0.00976   0.00401  -0.0142  0.7746  0.0218  -3.8580   0.0000   0.2180
  -6.800  -0.6151   0.00968   0.00387  -0.0139  0.7587  0.0221  -3.7195   0.0000   0.2177
  -6.600  -0.5935   0.00959   0.00374  -0.0137  0.7424  0.0225  -3.5830   0.0000   0.2173
  -6.400  -0.5721   0.00949   0.00359  -0.0135  0.7257  0.0232  -3.4492   0.0000   0.2170
  -6.200  -0.5506   0.00940   0.00346  -0.0132  0.7083  0.0240  -3.3163   0.0000   0.2166
  -6.000  -0.5290   0.00933   0.00334  -0.0130  0.6895  0.0248  -3.1848   0.0000   0.2161
  -5.800  -0.5075   0.00929   0.00323  -0.0128  0.6648  0.0256  -3.0555   0.0000   0.2156
  -5.600  -0.4861   0.00927   0.00312  -0.0126  0.6341  0.0261  -2.9286   0.0000   0.2150
  -5.400  -0.4646   0.00926   0.00301  -0.0123  0.6050  0.0267  -2.8036   0.0000   0.2144
  -5.200  -0.4429   0.00921   0.00290  -0.0122  0.5850  0.0278  -2.6802   0.0000   0.2136
  -5.000  -0.4209   0.00914   0.00280  -0.0120  0.5700  0.0287  -2.5575   0.0000   0.2125
  -4.800  -0.3989   0.00909   0.00271  -0.0119  0.5549  0.0297  -2.4383   0.0000   0.2113
  -4.600  -0.3767   0.00904   0.00263  -0.0118  0.5401  0.0305  -2.3277   0.0000   0.2098
  -4.400  -0.3545   0.00900   0.00254  -0.0117  0.5264  0.0314  -2.2189   0.0000   0.2082
  -4.200  -0.3325   0.00894   0.00246  -0.0116  0.5119  0.0330  -2.1119   0.0000   0.2063
  -4.000  -0.3103   0.00890   0.00238  -0.0115  0.4970  0.0345  -2.0062   0.0000   0.2041
  -3.800  -0.2880   0.00887   0.00231  -0.0114  0.4834  0.0356  -1.9021   0.0000   0.2015
  -3.600  -0.2658   0.00883   0.00224  -0.0113  0.4702  0.0374  -1.8001   0.0000   0.1985
  -3.400  -0.2435   0.00880   0.00217  -0.0112  0.4560  0.0391  -1.6997   0.0000   0.1948
  -3.200  -0.2212   0.00878   0.00212  -0.0111  0.4415  0.0406  -1.6008   0.0000   0.1904
  -3.000  -0.1989   0.00875   0.00206  -0.0111  0.4281  0.0428  -1.5055   0.0000   0.1849
  -2.800  -0.1766   0.00873   0.00201  -0.0110  0.4157  0.0454  -1.4172   0.0000   0.1780
  -2.600  -0.1543   0.00871   0.00196  -0.0109  0.4023  0.0481  -1.3306   0.0000   0.1691
  -2.200  -0.1097   0.00869   0.00188  -0.0108  0.3749  0.0541  -1.1620   0.0000   0.1404
  -2.000  -0.0872   0.00867   0.00184  -0.0108  0.3633  0.0577  -1.0798   0.0000   0.1146
  -1.800  -0.0649   0.00865   0.00181  -0.0107  0.3516  0.0629  -0.9992   0.0000   0.0714
  -1.600  -0.0426   0.00864   0.00177  -0.0106  0.3390  0.0687  -0.9260   0.0000  -0.0167
  -1.400  -0.0204   0.00864   0.00175  -0.0106  0.3264  0.0750  -0.8546   0.0000  -0.2976
  -1.200   0.0019   0.00862   0.00173  -0.0105  0.3152  0.0835  -0.7845   0.0000   5.9238
  -1.000   0.0241   0.00859   0.00170  -0.0104  0.3056  0.0973  -0.7159   0.0000   0.6941
  -0.800   0.0459   0.00852   0.00167  -0.0103  0.2955  0.1192  -0.7080   0.0000   0.4767
  -0.600   0.0632   0.00793   0.00151  -0.0095  0.2860  0.2665  -0.7320   0.0000   0.4005
  -0.400   0.0840   0.00774   0.00147  -0.0093  0.2766  0.3227  -0.7588   0.0000   0.3583
  -0.200   0.1053   0.00761   0.00145  -0.0091  0.2686  0.3641  -0.7863   0.0000   0.3331
   0.000   0.1269   0.00754   0.00144  -0.0090  0.2611  0.3982  -0.8142   0.0000   0.3166
   0.200   0.1488   0.00746   0.00144  -0.0089  0.2546  0.4299  -0.8437   0.0000   0.3050
   0.400   0.1708   0.00741   0.00145  -0.0088  0.2477  0.4572  -0.8735   0.0000   0.2964
   0.600   0.1928   0.00737   0.00146  -0.0087  0.2413  0.4849  -0.9035   0.0000   0.2898
   0.800   0.2149   0.00733   0.00148  -0.0086  0.2360  0.5113  -0.9338   0.0000   0.2845
   1.000   0.2370   0.00728   0.00149  -0.0085  0.2316  0.5381  -0.9643   0.0000   0.2803
   1.200   0.2590   0.00725   0.00152  -0.0084  0.2266  0.5668  -0.9961   0.0000   0.2766
   1.400   0.2809   0.00718   0.00154  -0.0083  0.2229  0.6013  -1.0283   0.0000   0.2735
   1.600   0.3031   0.00716   0.00157  -0.0083  0.2185  0.6251  -1.0609   0.0000   0.2709
   1.800   0.3257   0.00719   0.00161  -0.0083  0.2147  0.6366  -1.0940   0.0000   0.2689
   2.000   0.3485   0.00720   0.00164  -0.0083  0.2121  0.6485  -1.1275   0.0000   0.2672
   2.200   0.3712   0.00723   0.00168  -0.0084  0.2089  0.6603  -1.1625   0.0000   0.2657
   2.400   0.3938   0.00727   0.00173  -0.0084  0.2051  0.6729  -1.1977   0.0000   0.2642
   2.600   0.4165   0.00729   0.00177  -0.0084  0.2026  0.6854  -1.2333   0.0000   0.2630
   2.800   0.4391   0.00731   0.00181  -0.0084  0.2000  0.6980  -1.2691   0.0000   0.2618
   3.000   0.4616   0.00734   0.00186  -0.0084  0.1973  0.7107  -1.3051   0.0000   0.2608
   3.200   0.4841   0.00739   0.00192  -0.0084  0.1942  0.7235  -1.3426   0.0000   0.2597
   3.400   0.5067   0.00741   0.00197  -0.0084  0.1921  0.7363  -1.3807   0.0000   0.2588
   3.600   0.5292   0.00744   0.00203  -0.0084  0.1896  0.7492  -1.4191   0.0000   0.2580
   3.800   0.5516   0.00748   0.00209  -0.0084  0.1870  0.7622  -1.4575   0.0000   0.2572
   4.000   0.5739   0.00753   0.00215  -0.0084  0.1844  0.7751  -1.4963   0.0000   0.2564
   4.200   0.5964   0.00757   0.00222  -0.0084  0.1824  0.7881  -1.5370   0.0000   0.2556
   4.400   0.6188   0.00761   0.00228  -0.0084  0.1802  0.8008  -1.5780   0.0000   0.2549
   4.600   0.6410   0.00765   0.00235  -0.0084  0.1777  0.8135  -1.6191   0.0000   0.2542
   4.800   0.6631   0.00771   0.00243  -0.0083  0.1753  0.8260  -1.6603   0.0000   0.2535
   5.000   0.6852   0.00777   0.00251  -0.0083  0.1730  0.8381  -1.7027   0.0000   0.2529
   5.200   0.7075   0.00782   0.00259  -0.0082  0.1713  0.8499  -1.7464   0.0000   0.2522
   5.400   0.7296   0.00787   0.00267  -0.0081  0.1690  0.8612  -1.7904   0.0000   0.2516
   5.600   0.7515   0.00794   0.00276  -0.0081  0.1667  0.8722  -1.8344   0.0000   0.2510
   5.800   0.7733   0.00802   0.00286  -0.0080  0.1643  0.8827  -1.8789   0.0000   0.2503
   6.000   0.7952   0.00809   0.00295  -0.0079  0.1624  0.8928  -1.9255   0.0000   0.2497
   6.200   0.8171   0.00816   0.00304  -0.0078  0.1605  0.9026  -1.9724   0.0000   0.2492
   6.400   0.8388   0.00824   0.00314  -0.0076  0.1584  0.9119  -2.0194   0.0000   0.2485
   6.600   0.8602   0.00834   0.00325  -0.0075  0.1561  0.9207  -2.0667   0.0000   0.2479
   6.800   0.8815   0.00845   0.00336  -0.0073  0.1536  0.9288  -2.1159   0.0000   0.2472
   7.000   0.9031   0.00853   0.00346  -0.0071  0.1520  0.9365  -2.1659   0.0000   0.2467
   7.200   0.9245   0.00862   0.00357  -0.0070  0.1501  0.9440  -2.2159   0.0000   0.2460
   7.400   0.9455   0.00873   0.00369  -0.0067  0.1479  0.9507  -2.2672   0.0000   0.2454
   7.600   0.9665   0.00887   0.00381  -0.0065  0.1452  0.9570  -2.3196   0.0000   0.2448
   7.800   0.9877   0.00898   0.00393  -0.0063  0.1434  0.9632  -2.3728   0.0000   0.2442
   8.000   1.0093   0.00909   0.00405  -0.0062  0.1417  0.9682  -2.4277   0.0000   0.2437
   8.200   1.0307   0.00922   0.00418  -0.0061  0.1394  0.9733  -2.4844   0.0000   0.2432
   8.400   1.0527   0.00937   0.00432  -0.0061  0.1368  0.9775  -2.5423   0.0000   0.2429
   8.600   1.0749   0.00952   0.00446  -0.0062  0.1345  0.9812  -2.6024   0.0000   0.2426
   8.800   1.0983   0.00965   0.00459  -0.0066  0.1326  0.9843  -2.6659   0.0000   0.2425
   9.000   1.1209   0.00980   0.00474  -0.0068  0.1302  0.9875  -2.7298   0.0000   0.2423
   9.200   1.1447   0.00999   0.00491  -0.0073  0.1273  0.9894  -2.7978   0.0000   0.2424
   9.400   1.1681   0.01015   0.00507  -0.0077  0.1250  0.9918  -2.8674   0.0000   0.2423
   9.600   1.1918   0.01031   0.00522  -0.0082  0.1226  0.9935  -2.9400   0.0000   0.2423
   9.800   1.2161   0.01052   0.00541  -0.0089  0.1195  0.9946  -3.0175   0.0000   0.2425
  10.000   1.2402   0.01072   0.00560  -0.0096  0.1166  0.9957  -3.0983   0.0000   0.2425
  10.200   1.2641   0.01091   0.00578  -0.0101  0.1140  0.9969  -3.1834   0.0000   0.2425
  10.400   1.2877   0.01115   0.00600  -0.0107  0.1104  0.9979  -3.2729   0.0000   0.2425
  10.600   1.3116   0.01136   0.00621  -0.0113  0.1075  0.9987  -3.3685   0.0000   0.2426
  10.800   1.3351   0.01159   0.00642  -0.0119  0.1041  0.9995  -3.4679   0.0000   0.2425
  11.000   1.3542   0.01185   0.00666  -0.0116  0.1006  1.0000  -3.5629   0.0000   0.2418
  11.200   1.3698   0.01203   0.00684  -0.0104  0.0982  1.0000  -3.6521   0.0000   0.2406
  11.400   1.3847   0.01227   0.00707  -0.0092  0.0949  1.0000  -3.7446   0.0000   0.2393
  11.600   1.4001   0.01251   0.00729  -0.0080  0.0920  1.0000  -3.8391   0.0000   0.2381
  11.800   1.4162   0.01274   0.00752  -0.0071  0.0891  1.0000  -3.9386   0.0000   0.2370
  12.000   1.4315   0.01305   0.00781  -0.0060  0.0854  1.0000  -4.0403   0.0000   0.2359
  12.200   1.4482   0.01330   0.00805  -0.0052  0.0828  1.0000  -4.1470   0.0000   0.2349
  12.400   1.4637   0.01361   0.00836  -0.0043  0.0794  1.0000  -4.2513   0.0000   0.2339
  12.600   1.4796   0.01391   0.00865  -0.0034  0.0764  1.0000  -4.3607   0.0000   0.2329
  12.800   1.4944   0.01426   0.00898  -0.0024  0.0728  1.0000  -4.4714   0.0000   0.2319
  13.000   1.5091   0.01459   0.00931  -0.0014  0.0700  1.0000  -4.5828   0.0000   0.2308
  13.200   1.5223   0.01493   0.00964  -0.0000  0.0672  1.0000  -4.6907   0.0000   0.2296
  13.400   1.5336   0.01534   0.01004   0.0015  0.0640  1.0000  -4.7935   0.0000   0.2282
  13.600   1.5459   0.01573   0.01043   0.0029  0.0610  1.0000  -4.9001   0.0000   0.2269
  13.800   1.5567   0.01621   0.01090   0.0044  0.0577  1.0000  -5.0064   0.0000   0.2256
  14.000   1.5691   0.01663   0.01132   0.0056  0.0553  1.0000  -5.1220   0.0000   0.2245
  14.200   1.5798   0.01716   0.01185   0.0070  0.0527  1.0000  -5.2320   0.0000   0.2232
  14.400   1.5915   0.01764   0.01234   0.0081  0.0506  1.0000  -5.3470   0.0000   0.2222
  14.600   1.6019   0.01821   0.01292   0.0094  0.0480  1.0000  -5.4576   0.0000   0.2210
  14.800   1.6114   0.01885   0.01356   0.0107  0.0455  1.0000  -5.5659   0.0000   0.2198
  15.000   1.6211   0.01949   0.01421   0.0119  0.0431  1.0000  -5.6754   0.0000   0.2187
  15.200   1.6288   0.02028   0.01500   0.0132  0.0407  1.0000  -5.7781   0.0000   0.2176
  15.400   1.6385   0.02097   0.01571   0.0142  0.0391  1.0000  -5.8893   0.0000   0.2166
  15.600   1.6467   0.02179   0.01654   0.0152  0.0373  1.0000  -5.9961   0.0000   0.2155
  15.800   1.6537   0.02272   0.01749   0.0163  0.0356  1.0000  -6.1041   0.0000   0.2145
  16.000   1.6622   0.02357   0.01837   0.0171  0.0345  1.0000  -6.2189   0.0000   0.2136
  16.200   1.6692   0.02457   0.01939   0.0179  0.0331  1.0000  -6.3283   0.0000   0.2127
  16.400   1.6744   0.02575   0.02060   0.0188  0.0317  1.0000  -6.4297   0.0000   0.2118
  16.600   1.6800   0.02695   0.02182   0.0194  0.0305  1.0000  -6.5334   0.0000   0.2110
  16.800   1.6855   0.02819   0.02311   0.0200  0.0294  1.0000  -6.6370   0.0000   0.2102
  17.000   1.6890   0.02967   0.02461   0.0204  0.0281  1.0000  -6.7319   0.0000   0.2095
  17.200   1.6904   0.03138   0.02636   0.0208  0.0269  1.0000  -6.8173   0.0000   0.2087
  17.400   1.6929   0.03306   0.02808   0.0211  0.0260  1.0000  -6.9077   0.0000   0.2081
  17.600   1.6951   0.03482   0.02989   0.0212  0.0252  1.0000  -6.9966   0.0000   0.2076
  17.800   1.6957   0.03682   0.03193   0.0211  0.0245  1.0000  -7.0778   0.0000   0.2071
  18.000   1.6945   0.03904   0.03421   0.0210  0.0237  1.0000  -7.1499   0.0000   0.2066
  18.200   1.6910   0.04158   0.03680   0.0207  0.0230  1.0000  -7.2107   0.0000   0.2062
  18.400   1.6869   0.04429   0.03957   0.0202  0.0224  1.0000  -7.2672   0.0000   0.2059
  18.600   1.6834   0.04700   0.04235   0.0196  0.0220  1.0000  -7.3265   0.0000   0.2057
  18.800   1.6780   0.04998   0.04540   0.0189  0.0216  1.0000  -7.3755   0.0000   0.2055
  19.000   1.6708   0.05325   0.04873   0.0180  0.0213  1.0000  -7.4143   0.0000   0.2054
  19.200   1.6613   0.05689   0.05245   0.0169  0.0209  1.0000  -7.4401   0.0000   0.2054
  19.400   1.6493   0.06092   0.05657   0.0156  0.0206  1.0000  -7.4527   0.0000   0.2056
  19.600   1.6347   0.06533   0.06106   0.0142  0.0203  1.0000  -7.4512   0.0000   0.2058
  19.800   1.6177   0.07015   0.06597   0.0125  0.0200  1.0000  -7.4347   0.0000   0.2061
  20.000   1.5983   0.07538   0.07131   0.0106  0.0198  1.0000  -7.4022   0.0000   0.2066
  20.200   1.5762   0.08102   0.07705   0.0085  0.0197  1.0000  -7.3515   0.0000   0.2073
  20.400   1.5523   0.08704   0.08317   0.0061  0.0195  1.0000  -7.2871   0.0000   0.2081
  20.600   1.5267   0.09340   0.08965   0.0036  0.0194  1.0000  -7.2092   0.0000   0.2091
  20.800   1.4997   0.10001   0.09637   0.0009  0.0194  1.0000  -7.1190   0.0000   0.2103
  21.000   1.4732   0.10669   0.10315  -0.0020  0.0193  1.0000  -7.0273   0.0000   0.2116
  21.200   1.4483   0.11321   0.10977  -0.0049  0.0192  1.0000  -6.9414   0.0000   0.2131
  21.400   1.4233   0.11981   0.11647  -0.0079  0.0190  1.0000  -6.8500   0.0000   0.2147
  21.600   1.4011   0.12608   0.12283  -0.0109  0.0189  1.0000  -6.7715   0.0000   0.2164
  21.800   1.3817   0.13202   0.12885  -0.0139  0.0186  1.0000  -6.7064   0.0000   0.2181
  22.000   1.3651   0.13760   0.13451  -0.0168  0.0184  1.0000  -6.6552   0.0000   0.2198
  22.200   1.3507   0.14281   0.13978  -0.0195  0.0183  1.0000  -6.6162   0.0000   0.2215
  22.400   1.3394   0.14756   0.14459  -0.0222  0.0181  1.0000  -6.5945   0.0000   0.2230
  22.600   1.3289   0.15224   0.14933  -0.0248  0.0178  1.0000  -6.5758   0.0000   0.2246
  22.800   1.3182   0.15704   0.15418  -0.0277  0.0176  1.0000  -6.5518   0.0000   0.2263
  23.000   1.3115   0.16117   0.15836  -0.0302  0.0173  1.0000  -6.5542   0.0000   0.2278
  23.200   1.3025   0.16574   0.16298  -0.0330  0.0170  1.0000  -6.5370   0.0000   0.2296
  23.400   1.2955   0.17004   0.16733  -0.0358  0.0166  1.0000  -6.5312   0.0000   0.2313
  23.600   1.2887   0.17426   0.17158  -0.0385  0.0162  1.0000  -6.5256   0.0000   0.2330
  23.800   1.2815   0.17859   0.17596  -0.0414  0.0158  1.0000  -6.5139   0.0000   0.2349
  24.000   1.2765   0.18256   0.17996  -0.0441  0.0153  1.0000  -6.5167   0.0000   0.2366
  24.200   1.2717   0.18655   0.18398  -0.0469  0.0150  1.0000  -6.5185   0.0000   0.2383
  24.400   1.2694   0.19003   0.18751  -0.0493  0.0147  1.0000  -6.5403   0.0000   0.2398
  24.600   1.2683   0.19330   0.19081  -0.0517  0.0145  1.0000  -6.5702   0.0000   0.2411
  24.800   1.2644   0.19720   0.19475  -0.0545  0.0142  1.0000  -6.5734   0.0000   0.2429
  25.000   1.2632   0.20053   0.19810  -0.0570  0.0138  1.0000  -6.5998   0.0000   0.2443


