xflr5 v6.47

 Calculated polar for: NACA 23015

 1 1 Reynolds number fixed          Mach number fixed         

 xtrf =   1.000 (top)        1.000 (bottom)
 Mach =   0.000     Re =     0.800 e 6     Ncrit =   5.000

  alpha     CL        CD       CDp       Cm    Top Xtr Bot Xtr   Cpmin    Chinge    XCp    
 ------- -------- --------- --------- -------- ------- ------- -------- --------- ---------
 -15.000  -1.2342   0.03119   0.02607  -0.0489  1.0000  0.0154  -9.8090   0.0000   0.1909
 -14.800  -1.2285   0.02996   0.02479  -0.0482  1.0000  0.0156  -9.6844   0.0000   0.1917
 -14.600  -1.2218   0.02886   0.02364  -0.0473  1.0000  0.0157  -9.5519   0.0000   0.1925
 -14.400  -1.2141   0.02788   0.02261  -0.0464  1.0000  0.0158  -9.4130   0.0000   0.1934
 -14.200  -1.2057   0.02698   0.02167  -0.0454  1.0000  0.0160  -9.2693   0.0000   0.1942
 -14.000  -1.1966   0.02616   0.02080  -0.0444  1.0000  0.0161  -9.1224   0.0000   0.1952
 -13.800  -1.1871   0.02540   0.01999  -0.0433  1.0000  0.0162  -8.9729   0.0000   0.1961
 -13.600  -1.1771   0.02470   0.01924  -0.0421  1.0000  0.0164  -8.8216   0.0000   0.1971
 -13.400  -1.1667   0.02404   0.01854  -0.0409  1.0000  0.0165  -8.6688   0.0000   0.1982
 -13.200  -1.1562   0.02342   0.01788  -0.0396  1.0000  0.0167  -8.5157   0.0000   0.1993
 -13.000  -1.1454   0.02283   0.01725  -0.0383  1.0000  0.0169  -8.3623   0.0000   0.2004
 -12.800  -1.1345   0.02228   0.01666  -0.0369  1.0000  0.0170  -8.2095   0.0000   0.2017
 -12.600  -1.1237   0.02176   0.01609  -0.0353  1.0000  0.0172  -8.0577   0.0000   0.2030
 -12.400  -1.1132   0.02127   0.01556  -0.0336  1.0000  0.0174  -7.9120   0.0000   0.2045
 -12.200  -1.1030   0.02081   0.01507  -0.0318  1.0000  0.0176  -7.7744   0.0000   0.2062
 -12.000  -1.0929   0.02039   0.01461  -0.0299  1.0000  0.0177  -7.6378   0.0000   0.2080
 -11.800  -1.0815   0.01998   0.01415  -0.0281  1.0000  0.0179  -7.4961   0.0000   0.2096
 -11.600  -1.0698   0.01958   0.01372  -0.0264  1.0000  0.0181  -7.3539   0.0000   0.2112
 -11.400  -1.0584   0.01921   0.01332  -0.0246  1.0000  0.0182  -7.2138   0.0000   0.2129
 -11.200  -1.0472   0.01887   0.01293  -0.0226  1.0000  0.0184  -7.0749   0.0000   0.2147
 -11.000  -1.0361   0.01853   0.01257  -0.0207  1.0000  0.0185  -6.9374   0.0000   0.2166
 -10.800  -1.0272   0.01811   0.01212  -0.0184  1.0000  0.0188  -6.8134   0.0000   0.2190
 -10.600  -1.0101   0.01767   0.01167  -0.0177  0.9991  0.0191  -6.6534   0.0000   0.2196
 -10.400  -0.9861   0.01726   0.01125  -0.0183  0.9975  0.0195  -6.4643   0.0000   0.2187
 -10.200  -0.9623   0.01688   0.01086  -0.0189  0.9956  0.0198  -6.2764   0.0000   0.2178
 -10.000  -0.9377   0.01653   0.01050  -0.0196  0.9938  0.0203  -6.0880   0.0000   0.2167
  -9.800  -0.9133   0.01618   0.01014  -0.0203  0.9918  0.0207  -5.9032   0.0000   0.2156
  -9.600  -0.8891   0.01583   0.00977  -0.0209  0.9894  0.0211  -5.7225   0.0000   0.2145
  -9.400  -0.8642   0.01548   0.00939  -0.0217  0.9874  0.0214  -5.5423   0.0000   0.2131
  -9.200  -0.8412   0.01515   0.00904  -0.0220  0.9838  0.0218  -5.3718   0.0000   0.2123
  -9.000  -0.8170   0.01484   0.00870  -0.0225  0.9807  0.0221  -5.1984   0.0000   0.2110
  -8.800  -0.7948   0.01451   0.00835  -0.0226  0.9761  0.0224  -5.0352   0.0000   0.2102
  -8.600  -0.7718   0.01414   0.00798  -0.0229  0.9720  0.0230  -4.8710   0.0000   0.2091
  -8.400  -0.7500   0.01384   0.00767  -0.0229  0.9662  0.0234  -4.7113   0.0000   0.2085
  -8.200  -0.7282   0.01357   0.00740  -0.0228  0.9603  0.0239  -4.5530   0.0000   0.2078
  -8.000  -0.7064   0.01331   0.00713  -0.0227  0.9539  0.0245  -4.3969   0.0000   0.2070
  -7.800  -0.6854   0.01307   0.00687  -0.0224  0.9463  0.0250  -4.2463   0.0000   0.2066
  -7.600  -0.6650   0.01285   0.00662  -0.0220  0.9378  0.0255  -4.1030   0.0000   0.2064
  -7.400  -0.6446   0.01264   0.00637  -0.0216  0.9287  0.0261  -3.9680   0.0000   0.2062
  -7.200  -0.6245   0.01242   0.00613  -0.0210  0.9189  0.0266  -3.8358   0.0000   0.2061
  -7.000  -0.6048   0.01219   0.00588  -0.0205  0.9083  0.0274  -3.7057   0.0000   0.2061
  -6.800  -0.5847   0.01200   0.00566  -0.0199  0.8970  0.0282  -3.5753   0.0000   0.2059
  -6.600  -0.5645   0.01182   0.00545  -0.0194  0.8850  0.0289  -3.4468   0.0000   0.2057
  -6.400  -0.5441   0.01166   0.00524  -0.0189  0.8723  0.0297  -3.3200   0.0000   0.2055
  -6.200  -0.5237   0.01151   0.00503  -0.0184  0.8589  0.0304  -3.1948   0.0000   0.2051
  -6.000  -0.5032   0.01137   0.00483  -0.0180  0.8449  0.0311  -3.0712   0.0000   0.2047
  -5.800  -0.4829   0.01121   0.00463  -0.0175  0.8302  0.0320  -2.9495   0.0000   0.2043
  -5.600  -0.4623   0.01108   0.00446  -0.0170  0.8149  0.0330  -2.8281   0.0000   0.2037
  -5.400  -0.4415   0.01097   0.00429  -0.0166  0.7991  0.0342  -2.7078   0.0000   0.2030
  -5.200  -0.4205   0.01087   0.00413  -0.0162  0.7823  0.0353  -2.5891   0.0000   0.2020
  -5.000  -0.3998   0.01077   0.00396  -0.0158  0.7645  0.0366  -2.4729   0.0000   0.2011
  -4.800  -0.3792   0.01069   0.00381  -0.0154  0.7423  0.0380  -2.3631   0.0000   0.2001
  -4.600  -0.3587   0.01065   0.00367  -0.0149  0.7158  0.0394  -2.2592   0.0000   0.1991
  -4.400  -0.3379   0.01062   0.00353  -0.0145  0.6892  0.0407  -2.1565   0.0000   0.1978
  -4.200  -0.3170   0.01054   0.00340  -0.0142  0.6680  0.0424  -2.0548   0.0000   0.1960
  -4.000  -0.2957   0.01047   0.00328  -0.0139  0.6508  0.0444  -1.9534   0.0000   0.1937
  -3.800  -0.2743   0.01042   0.00317  -0.0137  0.6340  0.0464  -1.8534   0.0000   0.1909
  -3.600  -0.2530   0.01035   0.00306  -0.0134  0.6173  0.0491  -1.7551   0.0000   0.1877
  -3.400  -0.2315   0.01031   0.00296  -0.0132  0.6010  0.0516  -1.6582   0.0000   0.1836
  -3.200  -0.2100   0.01025   0.00286  -0.0129  0.5852  0.0545  -1.5629   0.0000   0.1787
  -3.000  -0.1883   0.01021   0.00278  -0.0127  0.5690  0.0577  -1.4729   0.0000   0.1725
  -2.800  -0.1668   0.01016   0.00269  -0.0125  0.5526  0.0619  -1.3878   0.0000   0.1648
  -2.600  -0.1452   0.01012   0.00261  -0.0123  0.5371  0.0668  -1.3039   0.0000   0.1547
  -2.400  -0.1236   0.01007   0.00254  -0.0121  0.5218  0.0725  -1.2213   0.0000   0.1408
  -2.200  -0.1020   0.01003   0.00247  -0.0119  0.5059  0.0794  -1.1403   0.0000   0.1213
  -2.000  -0.0806   0.00998   0.00240  -0.0117  0.4899  0.0895  -1.0610   0.0000   0.0917
  -1.800  -0.0594   0.00990   0.00233  -0.0115  0.4749  0.1055  -0.9847   0.0000   0.0416
  -1.600  -0.0388   0.00974   0.00223  -0.0112  0.4607  0.1389  -0.9159   0.0000  -0.0566
  -1.400  -0.0243   0.00890   0.00198  -0.0101  0.4474  0.3135  -0.8593   0.0000  -0.1898
  -1.200  -0.0047   0.00867   0.00192  -0.0096  0.4325  0.3734  -0.7939   0.0000  -1.9164
  -1.000   0.0156   0.00852   0.00188  -0.0093  0.4178  0.4193  -0.7285   0.0000   0.8632
  -0.800   0.0364   0.00843   0.00185  -0.0090  0.4041  0.4561  -0.7002   0.0000   0.5001
  -0.600   0.0572   0.00835   0.00183  -0.0087  0.3907  0.4906  -0.7269   0.0000   0.4010
  -0.400   0.0782   0.00830   0.00183  -0.0084  0.3768  0.5205  -0.7540   0.0000   0.3549
  -0.200   0.0993   0.00827   0.00183  -0.0081  0.3628  0.5488  -0.7812   0.0000   0.3282
   0.000   0.1204   0.00825   0.00184  -0.0078  0.3496  0.5762  -0.8086   0.0000   0.3109
   0.200   0.1416   0.00823   0.00186  -0.0076  0.3378  0.6026  -0.8373   0.0000   0.2988
   0.400   0.1628   0.00822   0.00188  -0.0073  0.3263  0.6294  -0.8664   0.0000   0.2897
   0.600   0.1837   0.00820   0.00191  -0.0070  0.3148  0.6587  -0.8955   0.0000   0.2824
   0.800   0.2044   0.00818   0.00195  -0.0066  0.3039  0.6892  -0.9246   0.0000   0.2764
   1.000   0.2257   0.00820   0.00199  -0.0063  0.2940  0.7100  -0.9543   0.0000   0.2720
   1.400   0.2694   0.00830   0.00207  -0.0060  0.2768  0.7366  -1.0174   0.0000   0.2659
   1.600   0.2912   0.00835   0.00212  -0.0058  0.2691  0.7499  -1.0495   0.0000   0.2634
   2.000   0.3348   0.00846   0.00224  -0.0055  0.2551  0.7764  -1.1142   0.0000   0.2595
   2.200   0.3565   0.00853   0.00230  -0.0053  0.2494  0.7895  -1.1477   0.0000   0.2578
   2.400   0.3785   0.00857   0.00237  -0.0052  0.2443  0.8025  -1.1822   0.0000   0.2564
   2.600   0.4001   0.00865   0.00244  -0.0050  0.2389  0.8153  -1.2167   0.0000   0.2550
   2.800   0.4219   0.00870   0.00251  -0.0048  0.2344  0.8279  -1.2515   0.0000   0.2538
   3.000   0.4437   0.00877   0.00259  -0.0046  0.2299  0.8402  -1.2864   0.0000   0.2527
   3.200   0.4652   0.00885   0.00268  -0.0044  0.2262  0.8521  -1.3225   0.0000   0.2516
   3.400   0.4870   0.00891   0.00276  -0.0042  0.2227  0.8635  -1.3596   0.0000   0.2506
   3.600   0.5086   0.00899   0.00285  -0.0040  0.2189  0.8745  -1.3967   0.0000   0.2497
   3.800   0.5300   0.00910   0.00295  -0.0037  0.2154  0.8850  -1.4339   0.0000   0.2487
   4.000   0.5518   0.00917   0.00305  -0.0035  0.2125  0.8950  -1.4716   0.0000   0.2480
   4.200   0.5735   0.00926   0.00315  -0.0033  0.2096  0.9047  -1.5109   0.0000   0.2472
   4.400   0.5949   0.00937   0.00325  -0.0031  0.2065  0.9139  -1.5505   0.0000   0.2464
   4.600   0.6164   0.00948   0.00337  -0.0029  0.2037  0.9225  -1.5905   0.0000   0.2457
   4.800   0.6383   0.00958   0.00347  -0.0028  0.2010  0.9302  -1.6311   0.0000   0.2452
   5.000   0.6601   0.00969   0.00359  -0.0026  0.1983  0.9376  -1.6722   0.0000   0.2446
   5.200   0.6818   0.00982   0.00371  -0.0025  0.1957  0.9450  -1.7150   0.0000   0.2441
   5.400   0.7043   0.00995   0.00384  -0.0025  0.1933  0.9508  -1.7589   0.0000   0.2439
   5.600   0.7270   0.01006   0.00395  -0.0026  0.1908  0.9567  -1.8033   0.0000   0.2437
   5.800   0.7501   0.01019   0.00408  -0.0028  0.1881  0.9619  -1.8484   0.0000   0.2436
   6.000   0.7736   0.01034   0.00422  -0.0031  0.1857  0.9665  -1.8961   0.0000   0.2437
   6.200   0.7968   0.01050   0.00436  -0.0033  0.1833  0.9711  -1.9440   0.0000   0.2437
   6.400   0.8215   0.01063   0.00449  -0.0039  0.1810  0.9746  -1.9940   0.0000   0.2441
   6.600   0.8459   0.01077   0.00464  -0.0044  0.1784  0.9781  -2.0441   0.0000   0.2444
   6.800   0.8702   0.01093   0.00479  -0.0050  0.1760  0.9813  -2.0967   0.0000   0.2446
   7.000   0.8955   0.01111   0.00495  -0.0058  0.1735  0.9837  -2.1507   0.0000   0.2451
   7.200   0.9201   0.01126   0.00510  -0.0064  0.1714  0.9867  -2.2042   0.0000   0.2454
   7.400   0.9465   0.01141   0.00527  -0.0074  0.1689  0.9882  -2.2622   0.0000   0.2460
   7.600   0.9727   0.01159   0.00543  -0.0084  0.1665  0.9897  -2.3212   0.0000   0.2466
   7.800   0.9980   0.01179   0.00562  -0.0092  0.1640  0.9917  -2.3794   0.0000   0.2470
   8.000   1.0235   0.01195   0.00579  -0.0101  0.1618  0.9934  -2.4402   0.0000   0.2474
   8.200   1.0497   0.01212   0.00597  -0.0111  0.1595  0.9947  -2.5032   0.0000   0.2478
   8.400   1.0752   0.01231   0.00616  -0.0120  0.1570  0.9963  -2.5663   0.0000   0.2482
   8.600   1.1002   0.01252   0.00636  -0.0128  0.1545  0.9978  -2.6317   0.0000   0.2484
   8.800   1.1258   0.01271   0.00655  -0.0137  0.1524  0.9990  -2.6984   0.0000   0.2487
   9.000   1.1496   0.01289   0.00675  -0.0143  0.1501  1.0000  -2.7659   0.0000   0.2486
   9.200   1.1648   0.01305   0.00692  -0.0130  0.1479  1.0000  -2.8209   0.0000   0.2471
   9.400   1.1797   0.01324   0.00710  -0.0117  0.1457  1.0000  -2.8782   0.0000   0.2456
   9.600   1.1947   0.01343   0.00730  -0.0104  0.1438  1.0000  -2.9366   0.0000   0.2441
   9.800   1.2106   0.01359   0.00748  -0.0093  0.1418  1.0000  -2.9997   0.0000   0.2428
  10.000   1.2263   0.01377   0.00768  -0.0082  0.1396  1.0000  -3.0648   0.0000   0.2414
  10.200   1.2416   0.01398   0.00789  -0.0070  0.1373  1.0000  -3.1320   0.0000   0.2401
  10.400   1.2565   0.01423   0.00812  -0.0058  0.1350  1.0000  -3.2016   0.0000   0.2388
  10.600   1.2729   0.01441   0.00833  -0.0048  0.1330  1.0000  -3.2786   0.0000   0.2376
  10.800   1.2891   0.01463   0.00856  -0.0039  0.1305  1.0000  -3.3588   0.0000   0.2365
  11.000   1.3049   0.01488   0.00882  -0.0029  0.1279  1.0000  -3.4404   0.0000   0.2354
  11.200   1.3206   0.01515   0.00909  -0.0019  0.1255  1.0000  -3.5271   0.0000   0.2343
  11.400   1.3370   0.01538   0.00935  -0.0011  0.1231  1.0000  -3.6167   0.0000   0.2334
  11.600   1.3527   0.01566   0.00963  -0.0001  0.1203  1.0000  -3.7101   0.0000   0.2324
  11.800   1.3673   0.01599   0.00996   0.0010  0.1175  1.0000  -3.8017   0.0000   0.2312
  12.000   1.3822   0.01625   0.01024   0.0020  0.1151  1.0000  -3.8953   0.0000   0.2301
  12.200   1.3958   0.01655   0.01056   0.0033  0.1123  1.0000  -3.9918   0.0000   0.2289
  12.400   1.4083   0.01693   0.01093   0.0047  0.1095  1.0000  -4.0859   0.0000   0.2276
  12.600   1.4219   0.01726   0.01129   0.0058  0.1070  1.0000  -4.1840   0.0000   0.2265
  12.800   1.4352   0.01763   0.01168   0.0070  0.1041  1.0000  -4.2819   0.0000   0.2253
  13.000   1.4472   0.01809   0.01214   0.0082  0.1013  1.0000  -4.3815   0.0000   0.2242
  13.200   1.4603   0.01850   0.01258   0.0093  0.0987  1.0000  -4.4865   0.0000   0.2231
  13.400   1.4726   0.01897   0.01306   0.0104  0.0957  1.0000  -4.5899   0.0000   0.2221
  13.600   1.4834   0.01954   0.01363   0.0116  0.0929  1.0000  -4.6892   0.0000   0.2209
  13.800   1.4957   0.02003   0.01416   0.0126  0.0902  1.0000  -4.7938   0.0000   0.2199
  14.000   1.5063   0.02064   0.01479   0.0136  0.0872  1.0000  -4.8939   0.0000   0.2189
  14.200   1.5163   0.02131   0.01547   0.0147  0.0845  1.0000  -4.9956   0.0000   0.2178
  14.400   1.5265   0.02198   0.01617   0.0157  0.0815  1.0000  -5.1021   0.0000   0.2169
  14.600   1.5347   0.02282   0.01701   0.0168  0.0786  1.0000  -5.2014   0.0000   0.2158
  14.800   1.5439   0.02360   0.01784   0.0177  0.0761  1.0000  -5.3053   0.0000   0.2149
  15.000   1.5520   0.02450   0.01876   0.0186  0.0734  1.0000  -5.4055   0.0000   0.2139
  15.200   1.5583   0.02556   0.01984   0.0195  0.0708  1.0000  -5.4990   0.0000   0.2130
  15.400   1.5655   0.02659   0.02091   0.0202  0.0681  1.0000  -5.5965   0.0000   0.2121
  15.600   1.5703   0.02786   0.02220   0.0209  0.0654  1.0000  -5.6848   0.0000   0.2112
  15.800   1.5752   0.02916   0.02354   0.0215  0.0630  1.0000  -5.7737   0.0000   0.2105
  16.000   1.5793   0.03059   0.02501   0.0220  0.0605  1.0000  -5.8594   0.0000   0.2097
  16.200   1.5812   0.03227   0.02672   0.0224  0.0583  1.0000  -5.9371   0.0000   0.2090
  16.400   1.5843   0.03390   0.02841   0.0226  0.0565  1.0000  -6.0243   0.0000   0.2084
  16.600   1.5858   0.03575   0.03031   0.0228  0.0545  1.0000  -6.1042   0.0000   0.2078
  16.800   1.5847   0.03793   0.03254   0.0227  0.0527  1.0000  -6.1721   0.0000   0.2073
  17.000   1.5836   0.04019   0.03486   0.0225  0.0511  1.0000  -6.2393   0.0000   0.2069
  17.200   1.5815   0.04261   0.03734   0.0222  0.0494  1.0000  -6.3018   0.0000   0.2066
  17.400   1.5765   0.04543   0.04024   0.0217  0.0477  1.0000  -6.3501   0.0000   0.2063
  17.800   1.5626   0.05181   0.04676   0.0201  0.0452  1.0000  -6.4246   0.0000   0.2061
  18.000   1.5541   0.05533   0.05037   0.0191  0.0439  1.0000  -6.4521   0.0000   0.2062
  18.200   1.5428   0.05930   0.05442   0.0178  0.0428  1.0000  -6.4645   0.0000   0.2063
  18.400   1.5285   0.06372   0.05893   0.0163  0.0419  1.0000  -6.4604   0.0000   0.2066
  18.600   1.5117   0.06857   0.06387   0.0146  0.0412  1.0000  -6.4414   0.0000   0.2071
  18.800   1.4945   0.07359   0.06900   0.0127  0.0405  1.0000  -6.4174   0.0000   0.2077
  19.000   1.4766   0.07876   0.07427   0.0107  0.0400  1.0000  -6.3878   0.0000   0.2083
  19.200   1.4566   0.08429   0.07992   0.0086  0.0395  1.0000  -6.3447   0.0000   0.2091
  19.400   1.4354   0.09012   0.08585   0.0063  0.0390  1.0000  -6.2915   0.0000   0.2101
  19.600   1.4133   0.09612   0.09195   0.0038  0.0385  1.0000  -6.2310   0.0000   0.2112
  19.800   1.3907   0.10227   0.09820   0.0012  0.0380  1.0000  -6.1637   0.0000   0.2125
  20.000   1.3685   0.10848   0.10451  -0.0015  0.0375  1.0000  -6.0948   0.0000   0.2139
  20.200   1.3472   0.11461   0.11074  -0.0043  0.0370  1.0000  -6.0274   0.0000   0.2155
  20.400   1.3272   0.12059   0.11679  -0.0070  0.0364  1.0000  -5.9641   0.0000   0.2171
  20.600   1.3085   0.12647   0.12274  -0.0098  0.0358  1.0000  -5.9036   0.0000   0.2188
  20.800   1.2953   0.13153   0.12787  -0.0124  0.0352  1.0000  -5.8734   0.0000   0.2203
  21.000   1.2835   0.13640   0.13281  -0.0149  0.0345  1.0000  -5.8491   0.0000   0.2219
  21.200   1.2723   0.14119   0.13766  -0.0174  0.0338  1.0000  -5.8256   0.0000   0.2234
  21.400   1.2621   0.14586   0.14238  -0.0199  0.0330  1.0000  -5.8055   0.0000   0.2251
  21.600   1.2522   0.15055   0.14712  -0.0226  0.0321  1.0000  -5.7845   0.0000   0.2268
  21.800   1.2420   0.15536   0.15197  -0.0253  0.0314  1.0000  -5.7586   0.0000   0.2287
  22.000   1.2356   0.15953   0.15618  -0.0278  0.0306  1.0000  -5.7553   0.0000   0.2303
  22.200   1.2311   0.16339   0.16009  -0.0302  0.0299  1.0000  -5.7632   0.0000   0.2317
  22.400   1.2277   0.16705   0.16379  -0.0324  0.0291  1.0000  -5.7775   0.0000   0.2331
  22.600   1.2224   0.17110   0.16788  -0.0350  0.0284  1.0000  -5.7756   0.0000   0.2348
  22.800   1.2179   0.17500   0.17181  -0.0375  0.0275  1.0000  -5.7788   0.0000   0.2365
  23.000   1.2120   0.17923   0.17607  -0.0403  0.0268  1.0000  -5.7715   0.0000   0.2384
  23.200   1.2101   0.18270   0.17957  -0.0427  0.0261  1.0000  -5.7937   0.0000   0.2399
  23.400   1.2088   0.18607   0.18298  -0.0450  0.0254  1.0000  -5.8192   0.0000   0.2413
  23.600   1.2074   0.18949   0.18643  -0.0474  0.0247  1.0000  -5.8426   0.0000   0.2428
  23.800   1.2059   0.19293   0.18990  -0.0498  0.0239  1.0000  -5.8643   0.0000   0.2443
  24.000   1.2027   0.19679   0.19379  -0.0526  0.0232  1.0000  -5.8678   0.0000   0.2462
  24.200   1.2007   0.20042   0.19743  -0.0552  0.0225  1.0000  -5.8804   0.0000   0.2479
  24.400   1.2005   0.20362   0.20067  -0.0576  0.0220  1.0000  -5.9079   0.0000   0.2493
  24.600   1.2013   0.20669   0.20377  -0.0599  0.0215  1.0000  -5.9422   0.0000   0.2507
  24.800   1.2022   0.20969   0.20680  -0.0622  0.0209  1.0000  -5.9778   0.0000   0.2520
  25.000   1.2025   0.21284   0.20998  -0.0647  0.0203  1.0000  -6.0060   0.0000   0.2534


