xflr5 v6.47

 Calculated polar for: NACA 23015

 1 1 Reynolds number fixed          Mach number fixed         

 xtrf =   1.000 (top)        1.000 (bottom)
 Mach =   0.000     Re =     2.000 e 6     Ncrit =   5.000

  alpha     CL        CD       CDp       Cm    Top Xtr Bot Xtr   Cpmin    Chinge    XCp    
 ------- -------- --------- --------- -------- ------- ------- -------- --------- ---------
 -15.000  -1.3682   0.02079   0.01590  -0.0390  1.0000  0.0123  -10.8200   0.0000   0.2024
 -14.800  -1.3572   0.02021   0.01529  -0.0377  1.0000  0.0124  -10.6472   0.0000   0.2035
 -14.600  -1.3456   0.01969   0.01474  -0.0364  1.0000  0.0126  -10.4711   0.0000   0.2046
 -14.400  -1.3337   0.01921   0.01424  -0.0351  1.0000  0.0128  -10.2927   0.0000   0.2057
 -14.200  -1.3215   0.01876   0.01377  -0.0337  1.0000  0.0130  -10.1134   0.0000   0.2068
 -14.000  -1.3092   0.01835   0.01334  -0.0323  1.0000  0.0132  -9.9343   0.0000   0.2080
 -13.800  -1.2970   0.01796   0.01294  -0.0307  1.0000  0.0133  -9.7569   0.0000   0.2092
 -13.600  -1.2849   0.01760   0.01256  -0.0291  1.0000  0.0135  -9.5811   0.0000   0.2106
 -13.400  -1.2720   0.01726   0.01220  -0.0276  1.0000  0.0136  -9.4023   0.0000   0.2118
 -13.200  -1.2578   0.01692   0.01185  -0.0263  1.0000  0.0138  -9.2180   0.0000   0.2129
 -13.000  -1.2435   0.01660   0.01151  -0.0250  1.0000  0.0139  -9.0348   0.0000   0.2140
 -12.800  -1.2295   0.01629   0.01119  -0.0235  1.0000  0.0140  -8.8547   0.0000   0.2152
 -12.600  -1.2163   0.01600   0.01088  -0.0220  1.0000  0.0142  -8.6791   0.0000   0.2166
 -12.400  -1.2034   0.01573   0.01060  -0.0202  1.0000  0.0143  -8.5147   0.0000   0.2181
 -12.200  -1.1828   0.01541   0.01026  -0.0201  0.9991  0.0144  -8.3177   0.0000   0.2182
 -12.000  -1.1598   0.01509   0.00992  -0.0205  0.9980  0.0146  -8.1113   0.0000   0.2177
 -11.800  -1.1367   0.01478   0.00960  -0.0209  0.9968  0.0147  -7.9066   0.0000   0.2173
 -11.600  -1.1136   0.01448   0.00928  -0.0213  0.9952  0.0148  -7.7043   0.0000   0.2168
 -11.400  -1.0902   0.01419   0.00898  -0.0217  0.9936  0.0149  -7.5024   0.0000   0.2163
 -11.200  -1.0677   0.01391   0.00869  -0.0219  0.9911  0.0150  -7.3063   0.0000   0.2159
 -11.000  -1.0454   0.01360   0.00836  -0.0221  0.9882  0.0152  -7.1157   0.0000   0.2155
 -10.800  -1.0236   0.01329   0.00805  -0.0221  0.9848  0.0156  -6.9293   0.0000   0.2152
 -10.600  -1.0017   0.01301   0.00776  -0.0222  0.9809  0.0159  -6.7428   0.0000   0.2149
 -10.400  -0.9808   0.01275   0.00750  -0.0220  0.9759  0.0162  -6.5621   0.0000   0.2149
 -10.200  -0.9601   0.01250   0.00725  -0.0217  0.9705  0.0165  -6.3836   0.0000   0.2149
 -10.000  -0.9400   0.01228   0.00701  -0.0212  0.9641  0.0168  -6.2096   0.0000   0.2151
  -9.800  -0.9204   0.01206   0.00678  -0.0207  0.9566  0.0171  -6.0392   0.0000   0.2154
  -9.600  -0.9008   0.01186   0.00656  -0.0201  0.9487  0.0174  -5.8707   0.0000   0.2158
  -9.400  -0.8811   0.01167   0.00634  -0.0195  0.9402  0.0176  -5.7039   0.0000   0.2161
  -9.200  -0.8613   0.01149   0.00613  -0.0190  0.9310  0.0179  -5.5382   0.0000   0.2164
  -9.000  -0.8413   0.01132   0.00594  -0.0185  0.9212  0.0181  -5.3733   0.0000   0.2167
  -8.800  -0.8210   0.01117   0.00574  -0.0180  0.9108  0.0184  -5.2095   0.0000   0.2169
  -8.600  -0.8007   0.01101   0.00555  -0.0175  0.8997  0.0186  -5.0479   0.0000   0.2171
  -8.400  -0.7806   0.01083   0.00533  -0.0170  0.8879  0.0191  -4.8904   0.0000   0.2174
  -8.200  -0.7601   0.01067   0.00513  -0.0166  0.8755  0.0196  -4.7329   0.0000   0.2175
  -8.000  -0.7395   0.01052   0.00495  -0.0162  0.8625  0.0200  -4.5763   0.0000   0.2176
  -7.800  -0.7187   0.01038   0.00477  -0.0158  0.8490  0.0205  -4.4208   0.0000   0.2176
  -7.600  -0.6977   0.01026   0.00461  -0.0155  0.8348  0.0209  -4.2694   0.0000   0.2176
  -7.400  -0.6767   0.01014   0.00444  -0.0152  0.8202  0.0214  -4.1271   0.0000   0.2175
  -7.200  -0.6555   0.01003   0.00429  -0.0149  0.8050  0.0217  -3.9862   0.0000   0.2174
  -7.000  -0.6341   0.00994   0.00414  -0.0146  0.7895  0.0221  -3.8467   0.0000   0.2172
  -6.800  -0.6128   0.00985   0.00400  -0.0143  0.7738  0.0223  -3.7090   0.0000   0.2169
  -6.600  -0.5915   0.00973   0.00384  -0.0141  0.7578  0.0231  -3.5745   0.0000   0.2167
  -6.400  -0.5702   0.00963   0.00370  -0.0138  0.7413  0.0238  -3.4405   0.0000   0.2163
  -6.200  -0.5487   0.00954   0.00356  -0.0136  0.7242  0.0246  -3.3076   0.0000   0.2159
  -6.000  -0.5271   0.00947   0.00344  -0.0134  0.7064  0.0254  -3.1764   0.0000   0.2154
  -5.800  -0.5055   0.00942   0.00333  -0.0131  0.6853  0.0260  -3.0473   0.0000   0.2148
  -5.600  -0.4841   0.00940   0.00321  -0.0129  0.6570  0.0264  -2.9206   0.0000   0.2142
  -5.400  -0.4629   0.00937   0.00309  -0.0126  0.6265  0.0274  -2.7970   0.0000   0.2137
  -5.200  -0.4414   0.00933   0.00298  -0.0124  0.6014  0.0284  -2.6740   0.0000   0.2129
  -5.000  -0.4195   0.00927   0.00288  -0.0122  0.5850  0.0294  -2.5518   0.0000   0.2118
  -4.800  -0.3975   0.00922   0.00279  -0.0121  0.5699  0.0302  -2.4330   0.0000   0.2106
  -4.600  -0.3754   0.00918   0.00270  -0.0120  0.5545  0.0309  -2.3227   0.0000   0.2091
  -4.400  -0.3534   0.00912   0.00260  -0.0119  0.5402  0.0323  -2.2146   0.0000   0.2075
  -4.200  -0.3313   0.00906   0.00252  -0.0118  0.5261  0.0338  -2.1076   0.0000   0.2056
  -4.000  -0.3091   0.00903   0.00244  -0.0117  0.5110  0.0352  -2.0022   0.0000   0.2034
  -3.800  -0.2870   0.00899   0.00237  -0.0115  0.4963  0.0365  -1.8987   0.0000   0.2008
  -3.600  -0.2648   0.00895   0.00230  -0.0115  0.4832  0.0383  -1.7968   0.0000   0.1977
  -3.400  -0.2425   0.00892   0.00223  -0.0114  0.4693  0.0400  -1.6964   0.0000   0.1940
  -3.200  -0.2203   0.00889   0.00217  -0.0113  0.4546  0.0416  -1.5979   0.0000   0.1895
  -3.000  -0.1981   0.00887   0.00211  -0.0112  0.4403  0.0441  -1.5029   0.0000   0.1841
  -2.800  -0.1758   0.00885   0.00206  -0.0111  0.4276  0.0464  -1.4148   0.0000   0.1770
  -2.600  -0.1536   0.00882   0.00200  -0.0110  0.4145  0.0496  -1.3285   0.0000   0.1681
  -2.400  -0.1312   0.00881   0.00196  -0.0110  0.4005  0.0521  -1.2435   0.0000   0.1559
  -2.200  -0.1090   0.00880   0.00192  -0.0109  0.3865  0.0558  -1.1602   0.0000   0.1389
  -2.000  -0.0867   0.00879   0.00188  -0.0108  0.3738  0.0597  -1.0783   0.0000   0.1130
  -1.800  -0.0644   0.00877   0.00185  -0.0108  0.3619  0.0650  -0.9979   0.0000   0.0690
  -1.600  -0.0421   0.00876   0.00181  -0.0107  0.3494  0.0710  -0.9249   0.0000  -0.0213
  -1.400  -0.0199   0.00875   0.00179  -0.0106  0.3365  0.0780  -0.8536   0.0000  -0.3119
  -1.200   0.0022   0.00873   0.00176  -0.0105  0.3242  0.0884  -0.7839   0.0000   5.3089
  -1.000   0.0242   0.00867   0.00173  -0.0104  0.3138  0.1052  -0.7156   0.0000   0.6925
  -0.800   0.0458   0.00858   0.00169  -0.0103  0.3041  0.1348  -0.7078   0.0000   0.4768
  -0.600   0.0625   0.00793   0.00152  -0.0094  0.2949  0.2935  -0.7314   0.0000   0.4006
  -0.400   0.0833   0.00776   0.00149  -0.0092  0.2846  0.3449  -0.7583   0.0000   0.3580
  -0.200   0.1047   0.00766   0.00147  -0.0090  0.2752  0.3823  -0.7858   0.0000   0.3328
   0.000   0.1264   0.00758   0.00147  -0.0089  0.2677  0.4156  -0.8138   0.0000   0.3162
   0.200   0.1481   0.00752   0.00147  -0.0088  0.2604  0.4459  -0.8431   0.0000   0.3045
   0.400   0.1701   0.00747   0.00147  -0.0087  0.2535  0.4738  -0.8729   0.0000   0.2960
   0.600   0.1921   0.00743   0.00149  -0.0086  0.2468  0.5005  -0.9029   0.0000   0.2893
   0.800   0.2141   0.00740   0.00151  -0.0085  0.2404  0.5268  -0.9331   0.0000   0.2841
   1.000   0.2361   0.00736   0.00153  -0.0084  0.2357  0.5540  -0.9635   0.0000   0.2798
   1.200   0.2581   0.00731   0.00155  -0.0083  0.2312  0.5846  -0.9954   0.0000   0.2761
   1.400   0.2798   0.00726   0.00158  -0.0081  0.2263  0.6177  -1.0273   0.0000   0.2729
   1.600   0.3022   0.00725   0.00161  -0.0081  0.2225  0.6364  -1.0600   0.0000   0.2705
   1.800   0.3248   0.00728   0.00165  -0.0081  0.2181  0.6482  -1.0931   0.0000   0.2684
   2.000   0.3474   0.00731   0.00168  -0.0081  0.2147  0.6603  -1.1265   0.0000   0.2667
   2.200   0.3702   0.00733   0.00172  -0.0082  0.2119  0.6727  -1.1614   0.0000   0.2652
   2.400   0.3927   0.00736   0.00176  -0.0082  0.2086  0.6854  -1.1966   0.0000   0.2638
   2.600   0.4151   0.00740   0.00181  -0.0082  0.2048  0.6979  -1.2320   0.0000   0.2624
   2.800   0.4378   0.00742   0.00186  -0.0082  0.2024  0.7106  -1.2677   0.0000   0.2613
   3.000   0.4603   0.00744   0.00191  -0.0082  0.1999  0.7235  -1.3037   0.0000   0.2603
   3.200   0.4828   0.00748   0.00197  -0.0082  0.1972  0.7363  -1.3413   0.0000   0.2593
   3.400   0.5051   0.00753   0.00203  -0.0081  0.1940  0.7493  -1.3790   0.0000   0.2583
   3.600   0.5276   0.00755   0.00208  -0.0081  0.1919  0.7622  -1.4173   0.0000   0.2574
   3.800   0.5501   0.00759   0.00214  -0.0081  0.1895  0.7752  -1.4558   0.0000   0.2566
   4.000   0.5724   0.00763   0.00221  -0.0081  0.1870  0.7882  -1.4945   0.0000   0.2558
   4.400   0.6169   0.00773   0.00235  -0.0080  0.1823  0.8137  -1.5758   0.0000   0.2544
   4.600   0.6391   0.00777   0.00242  -0.0080  0.1801  0.8261  -1.6169   0.0000   0.2537
   4.800   0.6613   0.00783   0.00250  -0.0079  0.1777  0.8383  -1.6581   0.0000   0.2530
   5.000   0.6832   0.00789   0.00258  -0.0078  0.1753  0.8500  -1.7003   0.0000   0.2523
   5.200   0.7052   0.00796   0.00267  -0.0077  0.1730  0.8614  -1.7437   0.0000   0.2516
   5.400   0.7273   0.00801   0.00275  -0.0077  0.1711  0.8724  -1.7876   0.0000   0.2510
   5.600   0.7492   0.00808   0.00284  -0.0076  0.1689  0.8829  -1.8317   0.0000   0.2504
   5.800   0.7711   0.00815   0.00294  -0.0075  0.1667  0.8929  -1.8761   0.0000   0.2497
   6.000   0.7927   0.00825   0.00304  -0.0073  0.1642  0.9027  -1.9223   0.0000   0.2491
   6.200   0.8144   0.00832   0.00314  -0.0072  0.1623  0.9121  -1.9689   0.0000   0.2485
   6.400   0.8360   0.00840   0.00323  -0.0071  0.1604  0.9207  -2.0158   0.0000   0.2478
   6.600   0.8575   0.00849   0.00334  -0.0069  0.1584  0.9288  -2.0632   0.0000   0.2472
   6.800   0.8788   0.00860   0.00345  -0.0067  0.1560  0.9366  -2.1124   0.0000   0.2466
   7.000   0.8999   0.00872   0.00357  -0.0065  0.1535  0.9441  -2.1617   0.0000   0.2459
   7.200   0.9213   0.00881   0.00368  -0.0063  0.1519  0.9507  -2.2117   0.0000   0.2453
   7.400   0.9427   0.00891   0.00379  -0.0061  0.1501  0.9569  -2.2632   0.0000   0.2447
   7.600   0.9638   0.00903   0.00391  -0.0059  0.1477  0.9630  -2.3159   0.0000   0.2442
   7.800   0.9852   0.00918   0.00405  -0.0058  0.1451  0.9681  -2.3692   0.0000   0.2437
   8.000   1.0069   0.00930   0.00417  -0.0057  0.1433  0.9731  -2.4240   0.0000   0.2432
   8.200   1.0295   0.00942   0.00430  -0.0059  0.1414  0.9770  -2.4824   0.0000   0.2430
   8.400   1.0518   0.00956   0.00443  -0.0060  0.1390  0.9810  -2.5406   0.0000   0.2427
   8.600   1.0751   0.00973   0.00458  -0.0064  0.1364  0.9839  -2.6023   0.0000   0.2427
   8.800   1.0977   0.00988   0.00473  -0.0065  0.1343  0.9873  -2.6645   0.0000   0.2425
   9.000   1.1221   0.01003   0.00488  -0.0072  0.1321  0.9891  -2.7312   0.0000   0.2426
   9.200   1.1458   0.01019   0.00504  -0.0076  0.1296  0.9913  -2.7991   0.0000   0.2426
   9.400   1.1690   0.01039   0.00522  -0.0081  0.1266  0.9933  -2.8684   0.0000   0.2426
   9.600   1.1939   0.01056   0.00538  -0.0088  0.1245  0.9943  -2.9429   0.0000   0.2428
   9.800   1.2185   0.01074   0.00556  -0.0095  0.1218  0.9954  -3.0211   0.0000   0.2429
  10.000   1.2422   0.01097   0.00576  -0.0101  0.1185  0.9966  -3.1014   0.0000   0.2430
  10.200   1.2662   0.01116   0.00595  -0.0107  0.1160  0.9977  -3.1867   0.0000   0.2430
  10.400   1.2904   0.01137   0.00615  -0.0114  0.1129  0.9984  -3.2778   0.0000   0.2430
  10.600   1.3137   0.01163   0.00639  -0.0119  0.1092  0.9994  -3.3724   0.0000   0.2430
  10.800   1.3356   0.01183   0.00659  -0.0121  0.1066  1.0000  -3.4684   0.0000   0.2427
  11.000   1.3505   0.01204   0.00678  -0.0109  0.1035  1.0000  -3.5541   0.0000   0.2413
  11.200   1.3654   0.01227   0.00700  -0.0096  0.1005  1.0000  -3.6406   0.0000   0.2400
  11.400   1.3812   0.01247   0.00720  -0.0085  0.0979  1.0000  -3.7354   0.0000   0.2388
  11.600   1.3965   0.01273   0.00745  -0.0074  0.0946  1.0000  -3.8296   0.0000   0.2376
  11.800   1.4125   0.01298   0.00769  -0.0065  0.0918  1.0000  -3.9280   0.0000   0.2365
  12.000   1.4288   0.01323   0.00794  -0.0056  0.0887  1.0000  -4.0325   0.0000   0.2355
  12.200   1.4442   0.01355   0.00824  -0.0046  0.0852  1.0000  -4.1353   0.0000   0.2345
  12.400   1.4607   0.01381   0.00850  -0.0038  0.0825  1.0000  -4.2423   0.0000   0.2335
  12.600   1.4757   0.01416   0.00883  -0.0028  0.0790  1.0000  -4.3483   0.0000   0.2325
  12.800   1.4910   0.01447   0.00914  -0.0019  0.0760  1.0000  -4.4606   0.0000   0.2315
  13.000   1.5044   0.01484   0.00949  -0.0006  0.0726  1.0000  -4.5679   0.0000   0.2303
  13.200   1.5172   0.01518   0.00983   0.0008  0.0701  1.0000  -4.6743   0.0000   0.2290
  13.400   1.5297   0.01554   0.01020   0.0022  0.0672  1.0000  -4.7808   0.0000   0.2278
  13.600   1.5409   0.01599   0.01064   0.0037  0.0640  1.0000  -4.8837   0.0000   0.2264
  13.800   1.5530   0.01642   0.01107   0.0049  0.0609  1.0000  -4.9931   0.0000   0.2252
  14.000   1.5635   0.01695   0.01159   0.0064  0.0578  1.0000  -5.1018   0.0000   0.2240
  14.200   1.5756   0.01740   0.01205   0.0075  0.0555  1.0000  -5.2169   0.0000   0.2229
  14.400   1.5859   0.01797   0.01263   0.0089  0.0528  1.0000  -5.3261   0.0000   0.2217
  14.600   1.5969   0.01852   0.01318   0.0100  0.0507  1.0000  -5.4388   0.0000   0.2206
  14.800   1.6067   0.01915   0.01381   0.0113  0.0482  1.0000  -5.5481   0.0000   0.2195
  15.000   1.6153   0.01987   0.01454   0.0125  0.0457  1.0000  -5.6534   0.0000   0.2183
  15.200   1.6246   0.02058   0.01526   0.0136  0.0434  1.0000  -5.7617   0.0000   0.2172
  15.400   1.6314   0.02146   0.01615   0.0149  0.0410  1.0000  -5.8614   0.0000   0.2161
  15.600   1.6404   0.02224   0.01695   0.0158  0.0394  1.0000  -5.9697   0.0000   0.2151
  15.800   1.6482   0.02313   0.01787   0.0167  0.0377  1.0000  -6.0805   0.0000   0.2142
  16.000   1.6540   0.02419   0.01895   0.0177  0.0360  1.0000  -6.1836   0.0000   0.2132
  16.200   1.6614   0.02519   0.01997   0.0185  0.0348  1.0000  -6.2939   0.0000   0.2123
  16.400   1.6678   0.02629   0.02111   0.0191  0.0335  1.0000  -6.4007   0.0000   0.2115
  16.600   1.6723   0.02759   0.02244   0.0198  0.0322  1.0000  -6.4991   0.0000   0.2107
  16.800   1.6757   0.02904   0.02392   0.0204  0.0308  1.0000  -6.5929   0.0000   0.2099
  17.000   1.6805   0.03044   0.02535   0.0208  0.0299  1.0000  -6.6930   0.0000   0.2092
  17.200   1.6833   0.03205   0.02701   0.0211  0.0287  1.0000  -6.7841   0.0000   0.2085
  17.400   1.6838   0.03394   0.02894   0.0213  0.0276  1.0000  -6.8647   0.0000   0.2079
  17.800   1.6838   0.03805   0.03314   0.0212  0.0258  1.0000  -7.0203   0.0000   0.2069
  18.000   1.6829   0.04028   0.03543   0.0210  0.0251  1.0000  -7.0931   0.0000   0.2065
  18.200   1.6803   0.04277   0.03797   0.0206  0.0244  1.0000  -7.1574   0.0000   0.2061
  18.400   1.6758   0.04554   0.04081   0.0201  0.0238  1.0000  -7.2119   0.0000   0.2059
  18.600   1.6690   0.04868   0.04402   0.0194  0.0232  1.0000  -7.2535   0.0000   0.2057
  18.800   1.6603   0.05211   0.04752   0.0185  0.0226  1.0000  -7.2845   0.0000   0.2056
  19.000   1.6512   0.05567   0.05116   0.0174  0.0222  1.0000  -7.3124   0.0000   0.2056
  19.200   1.6416   0.05939   0.05495   0.0163  0.0219  1.0000  -7.3361   0.0000   0.2057
  19.400   1.6290   0.06352   0.05917   0.0149  0.0217  1.0000  -7.3431   0.0000   0.2058
  19.600   1.6140   0.06804   0.06379   0.0133  0.0214  1.0000  -7.3356   0.0000   0.2061
  19.800   1.5967   0.07297   0.06881   0.0116  0.0212  1.0000  -7.3154   0.0000   0.2065
  20.000   1.5769   0.07829   0.07423   0.0096  0.0210  1.0000  -7.2789   0.0000   0.2071
  20.200   1.5548   0.08400   0.08005   0.0074  0.0209  1.0000  -7.2264   0.0000   0.2078
  20.400   1.5310   0.09008   0.08623   0.0050  0.0208  1.0000  -7.1607   0.0000   0.2087
  20.600   1.5052   0.09649   0.09276   0.0024  0.0207  1.0000  -7.0801   0.0000   0.2098
  20.800   1.4788   0.10310   0.09947  -0.0003  0.0206  1.0000  -6.9914   0.0000   0.2111
  21.000   1.4540   0.10957   0.10604  -0.0031  0.0205  1.0000  -6.9083   0.0000   0.2124
  21.200   1.4289   0.11617   0.11275  -0.0061  0.0204  1.0000  -6.8190   0.0000   0.2140
  21.400   1.4068   0.12235   0.11902  -0.0090  0.0202  1.0000  -6.7439   0.0000   0.2156
  21.600   1.3861   0.12846   0.12522  -0.0120  0.0200  1.0000  -6.6728   0.0000   0.2172
  21.800   1.3672   0.13437   0.13120  -0.0150  0.0198  1.0000  -6.6095   0.0000   0.2190
  22.000   1.3509   0.13992   0.13681  -0.0179  0.0195  1.0000  -6.5586   0.0000   0.2208
  22.200   1.3358   0.14528   0.14224  -0.0208  0.0192  1.0000  -6.5127   0.0000   0.2226
  22.400   1.3220   0.15054   0.14756  -0.0237  0.0188  1.0000  -6.4710   0.0000   0.2244
  22.600   1.3107   0.15544   0.15252  -0.0266  0.0185  1.0000  -6.4432   0.0000   0.2262
  22.800   1.3046   0.15946   0.15659  -0.0290  0.0182  1.0000  -6.4503   0.0000   0.2276
  23.000   1.2962   0.16392   0.16111  -0.0318  0.0180  1.0000  -6.4385   0.0000   0.2293
  23.200   1.2916   0.16774   0.16496  -0.0342  0.0177  1.0000  -6.4519   0.0000   0.2307
  23.400   1.2842   0.17210   0.16937  -0.0370  0.0174  1.0000  -6.4424   0.0000   0.2325
  23.600   1.2803   0.17579   0.17310  -0.0394  0.0170  1.0000  -6.4577   0.0000   0.2340
  23.800   1.2734   0.18011   0.17746  -0.0423  0.0166  1.0000  -6.4463   0.0000   0.2358
  24.000   1.2698   0.18382   0.18120  -0.0448  0.0162  1.0000  -6.4598   0.0000   0.2374
  24.200   1.2635   0.18812   0.18554  -0.0478  0.0158  1.0000  -6.4481   0.0000   0.2394
  24.400   1.2604   0.19181   0.18926  -0.0504  0.0153  1.0000  -6.4610   0.0000   0.2410
  24.600   1.2565   0.19570   0.19318  -0.0532  0.0149  1.0000  -6.4645   0.0000   0.2428
  24.800   1.2559   0.19893   0.19645  -0.0556  0.0147  1.0000  -6.4954   0.0000   0.2441
  25.000   1.2557   0.20207   0.19962  -0.0580  0.0144  1.0000  -6.5290   0.0000   0.2454


