xflr5 v6.47

 Calculated polar for: NACA 23015

 1 1 Reynolds number fixed          Mach number fixed         

 xtrf =   1.000 (top)        1.000 (bottom)
 Mach =   0.000     Re =     2.400 e 6     Ncrit =   5.000

  alpha     CL        CD       CDp       Cm    Top Xtr Bot Xtr   Cpmin    Chinge    XCp    
 ------- -------- --------- --------- -------- ------- ------- -------- --------- ---------
 -15.000  -1.3860   0.01964   0.01484  -0.0371  1.0000  0.0118  -10.9461   0.0000   0.2043
 -14.800  -1.3735   0.01919   0.01436  -0.0358  1.0000  0.0119  -10.7609   0.0000   0.2053
 -14.600  -1.3608   0.01876   0.01390  -0.0346  1.0000  0.0119  -10.5753   0.0000   0.2063
 -14.400  -1.3489   0.01831   0.01342  -0.0331  1.0000  0.0120  -10.3968   0.0000   0.2074
 -14.200  -1.3372   0.01786   0.01295  -0.0316  1.0000  0.0122  -10.2215   0.0000   0.2087
 -14.000  -1.3255   0.01746   0.01252  -0.0299  1.0000  0.0124  -10.0461   0.0000   0.2101
 -13.800  -1.3136   0.01709   0.01213  -0.0283  1.0000  0.0127  -9.8696   0.0000   0.2114
 -13.600  -1.3001   0.01673   0.01177  -0.0269  1.0000  0.0129  -9.6852   0.0000   0.2126
 -13.400  -1.2856   0.01640   0.01142  -0.0256  1.0000  0.0131  -9.4967   0.0000   0.2136
 -13.200  -1.2711   0.01608   0.01109  -0.0243  1.0000  0.0132  -9.3095   0.0000   0.2147
 -13.000  -1.2569   0.01578   0.01078  -0.0229  1.0000  0.0134  -9.1257   0.0000   0.2159
 -12.800  -1.2435   0.01550   0.01049  -0.0213  1.0000  0.0135  -8.9469   0.0000   0.2173
 -12.600  -1.2275   0.01521   0.01019  -0.0203  0.9996  0.0137  -8.7561   0.0000   0.2182
 -12.400  -1.2049   0.01488   0.00986  -0.0206  0.9985  0.0139  -8.5457   0.0000   0.2179
 -12.200  -1.1819   0.01457   0.00953  -0.0210  0.9976  0.0140  -8.3362   0.0000   0.2174
 -12.000  -1.1592   0.01426   0.00922  -0.0213  0.9962  0.0142  -8.1308   0.0000   0.2171
 -11.800  -1.1365   0.01397   0.00892  -0.0216  0.9943  0.0144  -7.9268   0.0000   0.2167
 -11.600  -1.1136   0.01369   0.00863  -0.0218  0.9924  0.0145  -7.7243   0.0000   0.2163
 -11.400  -1.0916   0.01343   0.00836  -0.0219  0.9892  0.0147  -7.5280   0.0000   0.2161
 -11.200  -1.0690   0.01317   0.00809  -0.0221  0.9864  0.0148  -7.3307   0.0000   0.2157
 -11.000  -1.0475   0.01292   0.00783  -0.0220  0.9822  0.0149  -7.1404   0.0000   0.2156
 -10.800  -1.0263   0.01269   0.00759  -0.0219  0.9776  0.0150  -6.9530   0.0000   0.2155
 -10.600  -1.0057   0.01246   0.00734  -0.0216  0.9722  0.0151  -6.7709   0.0000   0.2156
 -10.400  -0.9865   0.01221   0.00707  -0.0210  0.9653  0.0154  -6.5979   0.0000   0.2160
 -10.200  -0.9672   0.01198   0.00683  -0.0204  0.9580  0.0158  -6.4258   0.0000   0.2165
 -10.000  -0.9479   0.01176   0.00659  -0.0197  0.9501  0.0161  -6.2546   0.0000   0.2169
  -9.800  -0.9285   0.01156   0.00637  -0.0191  0.9415  0.0164  -6.0842   0.0000   0.2173
  -9.600  -0.9089   0.01137   0.00616  -0.0186  0.9324  0.0167  -5.9147   0.0000   0.2177
  -9.400  -0.8890   0.01119   0.00596  -0.0180  0.9227  0.0170  -5.7462   0.0000   0.2181
  -9.200  -0.8689   0.01102   0.00576  -0.0175  0.9122  0.0173  -5.5787   0.0000   0.2184
  -9.000  -0.8486   0.01087   0.00557  -0.0171  0.9012  0.0176  -5.4121   0.0000   0.2186
  -8.800  -0.8281   0.01072   0.00538  -0.0167  0.8896  0.0179  -5.2466   0.0000   0.2188
  -8.600  -0.8073   0.01058   0.00521  -0.0163  0.8773  0.0182  -5.0824   0.0000   0.2189
  -8.400  -0.7865   0.01045   0.00503  -0.0159  0.8645  0.0184  -4.9196   0.0000   0.2190
  -8.200  -0.7655   0.01033   0.00486  -0.0156  0.8510  0.0186  -4.7592   0.0000   0.2190
  -8.000  -0.7448   0.01018   0.00467  -0.0152  0.8371  0.0191  -4.6025   0.0000   0.2191
  -7.800  -0.7238   0.01004   0.00450  -0.0149  0.8226  0.0196  -4.4464   0.0000   0.2191
  -7.600  -0.7027   0.00992   0.00434  -0.0146  0.8077  0.0201  -4.2937   0.0000   0.2191
  -7.400  -0.6815   0.00981   0.00419  -0.0143  0.7923  0.0206  -4.1502   0.0000   0.2190
  -7.200  -0.6601   0.00971   0.00404  -0.0140  0.7766  0.0211  -4.0081   0.0000   0.2188
  -7.000  -0.6387   0.00961   0.00390  -0.0138  0.7607  0.0215  -3.8676   0.0000   0.2186
  -6.800  -0.6171   0.00953   0.00376  -0.0136  0.7446  0.0219  -3.7287   0.0000   0.2183
  -6.600  -0.5954   0.00945   0.00364  -0.0134  0.7282  0.0222  -3.5913   0.0000   0.2180
  -6.400  -0.5738   0.00937   0.00351  -0.0132  0.7113  0.0227  -3.4564   0.0000   0.2176
  -6.200  -0.5522   0.00928   0.00337  -0.0130  0.6936  0.0235  -3.3235   0.0000   0.2172
  -6.000  -0.5307   0.00922   0.00325  -0.0127  0.6727  0.0243  -3.1922   0.0000   0.2168
  -5.600  -0.4878   0.00917   0.00304  -0.0123  0.6136  0.0258  -2.9356   0.0000   0.2157
  -5.400  -0.4661   0.00915   0.00294  -0.0121  0.5876  0.0263  -2.8096   0.0000   0.2150
  -5.200  -0.4442   0.00910   0.00284  -0.0120  0.5709  0.0271  -2.6853   0.0000   0.2141
  -5.000  -0.4222   0.00903   0.00274  -0.0118  0.5562  0.0282  -2.5626   0.0000   0.2131
  -4.800  -0.4001   0.00897   0.00265  -0.0117  0.5412  0.0292  -2.4429   0.0000   0.2119
  -4.600  -0.3779   0.00893   0.00256  -0.0116  0.5273  0.0301  -2.3320   0.0000   0.2104
  -4.400  -0.3556   0.00889   0.00248  -0.0115  0.5135  0.0308  -2.2227   0.0000   0.2088
  -4.200  -0.3335   0.00884   0.00240  -0.0114  0.4988  0.0321  -2.1156   0.0000   0.2069
  -4.000  -0.3113   0.00879   0.00233  -0.0113  0.4844  0.0338  -2.0098   0.0000   0.2048
  -3.800  -0.2890   0.00876   0.00226  -0.0112  0.4717  0.0352  -1.9054   0.0000   0.2022
  -3.600  -0.2666   0.00873   0.00219  -0.0112  0.4582  0.0365  -1.8030   0.0000   0.1991
  -3.400  -0.2444   0.00869   0.00213  -0.0111  0.4438  0.0383  -1.7025   0.0000   0.1956
  -3.200  -0.2221   0.00867   0.00207  -0.0110  0.4298  0.0400  -1.6035   0.0000   0.1912
  -3.000  -0.1996   0.00865   0.00202  -0.0110  0.4176  0.0416  -1.5075   0.0000   0.1857
  -2.800  -0.1773   0.00862   0.00197  -0.0109  0.4051  0.0443  -1.4192   0.0000   0.1789
  -2.600  -0.1549   0.00861   0.00192  -0.0108  0.3914  0.0467  -1.3324   0.0000   0.1700
  -2.400  -0.1326   0.00859   0.00188  -0.0108  0.3777  0.0499  -1.2473   0.0000   0.1584
  -2.200  -0.1102   0.00858   0.00184  -0.0107  0.3655  0.0525  -1.1634   0.0000   0.1415
  -2.000  -0.0877   0.00857   0.00180  -0.0107  0.3544  0.0563  -1.0811   0.0000   0.1162
  -1.800  -0.0654   0.00856   0.00177  -0.0106  0.3423  0.0607  -1.0005   0.0000   0.0736
  -1.600  -0.0430   0.00855   0.00174  -0.0106  0.3297  0.0662  -0.9270   0.0000  -0.0128
  -1.400  -0.0207   0.00855   0.00172  -0.0105  0.3178  0.0721  -0.8554   0.0000  -0.2865
  -1.200   0.0017   0.00853   0.00170  -0.0105  0.3076  0.0794  -0.7851   0.0000   6.8240
  -0.800   0.0460   0.00846   0.00165  -0.0103  0.2876  0.1093  -0.7081   0.0000   0.4768
  -0.600   0.0674   0.00833   0.00161  -0.0101  0.2781  0.1483  -0.7352   0.0000   0.3997
  -0.400   0.0846   0.00772   0.00146  -0.0094  0.2701  0.3013  -0.7593   0.0000   0.3585
  -0.200   0.1058   0.00759   0.00144  -0.0092  0.2623  0.3468  -0.7867   0.0000   0.3334
   0.000   0.1276   0.00748   0.00142  -0.0091  0.2561  0.3817  -0.8148   0.0000   0.3170
   0.200   0.1493   0.00742   0.00142  -0.0089  0.2489  0.4147  -0.8442   0.0000   0.3053
   0.400   0.1714   0.00736   0.00143  -0.0089  0.2428  0.4424  -0.8740   0.0000   0.2968
   0.600   0.1934   0.00731   0.00144  -0.0088  0.2367  0.4706  -0.9040   0.0000   0.2901
   0.800   0.2156   0.00726   0.00145  -0.0087  0.2323  0.4970  -0.9344   0.0000   0.2849
   1.000   0.2377   0.00723   0.00147  -0.0087  0.2274  0.5235  -0.9649   0.0000   0.2806
   1.200   0.2599   0.00717   0.00149  -0.0086  0.2237  0.5513  -0.9970   0.0000   0.2771
   1.400   0.2818   0.00712   0.00151  -0.0085  0.2193  0.5853  -1.0292   0.0000   0.2740
   1.600   0.3039   0.00709   0.00154  -0.0084  0.2151  0.6134  -1.0616   0.0000   0.2713
   1.800   0.3267   0.00710   0.00157  -0.0085  0.2124  0.6263  -1.0949   0.0000   0.2693
   2.000   0.3494   0.00712   0.00161  -0.0085  0.2094  0.6378  -1.1284   0.0000   0.2676
   2.200   0.3720   0.00715   0.00165  -0.0085  0.2058  0.6496  -1.1633   0.0000   0.2660
   2.400   0.3948   0.00717   0.00169  -0.0086  0.2030  0.6614  -1.1987   0.0000   0.2647
   2.600   0.4176   0.00720   0.00173  -0.0086  0.2003  0.6738  -1.2344   0.0000   0.2634
   2.800   0.4402   0.00723   0.00177  -0.0086  0.1976  0.6864  -1.2702   0.0000   0.2623
   3.000   0.4627   0.00726   0.00182  -0.0086  0.1946  0.6991  -1.3062   0.0000   0.2612
   3.200   0.4854   0.00728   0.00187  -0.0087  0.1925  0.7117  -1.3440   0.0000   0.2602
   3.400   0.5080   0.00731   0.00192  -0.0087  0.1900  0.7245  -1.3822   0.0000   0.2593
   3.600   0.5305   0.00735   0.00198  -0.0087  0.1873  0.7374  -1.4205   0.0000   0.2584
   3.800   0.5529   0.00739   0.00204  -0.0087  0.1847  0.7502  -1.4589   0.0000   0.2576
   4.000   0.5754   0.00743   0.00210  -0.0087  0.1827  0.7631  -1.4979   0.0000   0.2568
   4.200   0.5979   0.00746   0.00216  -0.0087  0.1806  0.7760  -1.5388   0.0000   0.2561
   4.400   0.6203   0.00750   0.00223  -0.0087  0.1781  0.7889  -1.5798   0.0000   0.2554
   4.600   0.6426   0.00756   0.00230  -0.0087  0.1755  0.8017  -1.6208   0.0000   0.2547
   4.800   0.6648   0.00761   0.00238  -0.0087  0.1732  0.8142  -1.6622   0.0000   0.2540
   5.000   0.6872   0.00765   0.00245  -0.0086  0.1716  0.8267  -1.7049   0.0000   0.2534
   5.200   0.7094   0.00770   0.00252  -0.0086  0.1694  0.8388  -1.7487   0.0000   0.2528
   5.400   0.7314   0.00776   0.00261  -0.0085  0.1669  0.8506  -1.7926   0.0000   0.2521
   5.600   0.7534   0.00784   0.00270  -0.0085  0.1645  0.8621  -1.8366   0.0000   0.2515
   5.800   0.7754   0.00790   0.00279  -0.0084  0.1627  0.8729  -1.8815   0.0000   0.2509
   6.000   0.7974   0.00796   0.00287  -0.0083  0.1608  0.8834  -1.9283   0.0000   0.2503
   6.200   0.8193   0.00803   0.00296  -0.0082  0.1586  0.8935  -1.9752   0.0000   0.2497
   6.400   0.8411   0.00812   0.00306  -0.0081  0.1564  0.9032  -2.0222   0.0000   0.2491
   6.600   0.8626   0.00822   0.00317  -0.0080  0.1538  0.9126  -2.0697   0.0000   0.2485
   6.800   0.8842   0.00829   0.00327  -0.0079  0.1522  0.9213  -2.1195   0.0000   0.2479
   7.000   0.9058   0.00838   0.00337  -0.0077  0.1503  0.9294  -2.1695   0.0000   0.2473
   7.200   0.9272   0.00848   0.00348  -0.0075  0.1482  0.9370  -2.2196   0.0000   0.2467
   7.400   0.9482   0.00860   0.00360  -0.0073  0.1456  0.9446  -2.2709   0.0000   0.2460
   7.600   0.9693   0.00870   0.00372  -0.0071  0.1436  0.9513  -2.3235   0.0000   0.2454
   7.800   0.9905   0.00880   0.00383  -0.0069  0.1420  0.9575  -2.3768   0.0000   0.2448
   8.000   1.0116   0.00892   0.00395  -0.0067  0.1398  0.9637  -2.4312   0.0000   0.2442
   8.200   1.0327   0.00906   0.00408  -0.0065  0.1372  0.9689  -2.4874   0.0000   0.2436
   8.400   1.0540   0.00920   0.00422  -0.0064  0.1348  0.9738  -2.5443   0.0000   0.2431
   8.600   1.0761   0.00932   0.00434  -0.0064  0.1331  0.9781  -2.6045   0.0000   0.2428
   8.800   1.0985   0.00946   0.00448  -0.0066  0.1308  0.9817  -2.6666   0.0000   0.2425
   9.000   1.1211   0.00963   0.00463  -0.0068  0.1281  0.9850  -2.7304   0.0000   0.2423
   9.200   1.1438   0.00979   0.00479  -0.0071  0.1255  0.9879  -2.7968   0.0000   0.2421
   9.400   1.1677   0.00994   0.00493  -0.0076  0.1235  0.9899  -2.8673   0.0000   0.2422
   9.600   1.1905   0.01012   0.00510  -0.0079  0.1206  0.9924  -2.9382   0.0000   0.2420
   9.800   1.2141   0.01033   0.00529  -0.0084  0.1173  0.9939  -3.0143   0.0000   0.2420
  10.000   1.2385   0.01050   0.00546  -0.0091  0.1151  0.9950  -3.0956   0.0000   0.2421
  10.200   1.2623   0.01071   0.00565  -0.0097  0.1118  0.9962  -3.1803   0.0000   0.2422
  10.400   1.2855   0.01094   0.00586  -0.0101  0.1085  0.9974  -3.2689   0.0000   0.2421
  10.600   1.3096   0.01114   0.00606  -0.0108  0.1056  0.9981  -3.3648   0.0000   0.2422
  10.800   1.3328   0.01141   0.00630  -0.0113  0.1016  0.9990  -3.4630   0.0000   0.2421
  11.000   1.3563   0.01163   0.00651  -0.0119  0.0988  0.9998  -3.5683   0.0000   0.2420
  11.200   1.3731   0.01186   0.00672  -0.0110  0.0954  1.0000  -3.6607   0.0000   0.2410
  11.400   1.3879   0.01210   0.00695  -0.0098  0.0924  1.0000  -3.7531   0.0000   0.2397
  11.600   1.4036   0.01231   0.00715  -0.0087  0.0896  1.0000  -3.8485   0.0000   0.2385
  11.800   1.4186   0.01259   0.00741  -0.0075  0.0861  1.0000  -3.9455   0.0000   0.2373
  12.000   1.4350   0.01283   0.00765  -0.0066  0.0833  1.0000  -4.0505   0.0000   0.2363
  12.200   1.4509   0.01311   0.00792  -0.0057  0.0801  1.0000  -4.1550   0.0000   0.2352
  12.400   1.4668   0.01341   0.00821  -0.0048  0.0770  1.0000  -4.2605   0.0000   0.2342
  12.600   1.4825   0.01373   0.00851  -0.0039  0.0734  1.0000  -4.3699   0.0000   0.2332
  12.800   1.4976   0.01407   0.00883  -0.0029  0.0703  1.0000  -4.4817   0.0000   0.2322
  13.000   1.5130   0.01438   0.00914  -0.0020  0.0676  1.0000  -4.5954   0.0000   0.2312
  13.200   1.5256   0.01476   0.00951  -0.0006  0.0642  1.0000  -4.7013   0.0000   0.2299
  13.400   1.5382   0.01511   0.00986   0.0008  0.0614  1.0000  -4.8084   0.0000   0.2287
  13.600   1.5489   0.01556   0.01030   0.0024  0.0579  1.0000  -4.9101   0.0000   0.2272
  13.800   1.5616   0.01595   0.01069   0.0037  0.0555  1.0000  -5.0237   0.0000   0.2261
  14.000   1.5726   0.01643   0.01116   0.0051  0.0528  1.0000  -5.1346   0.0000   0.2248
  14.200   1.5849   0.01687   0.01161   0.0063  0.0507  1.0000  -5.2506   0.0000   0.2237
  14.400   1.5958   0.01738   0.01212   0.0076  0.0482  1.0000  -5.3629   0.0000   0.2225
  14.600   1.6059   0.01796   0.01270   0.0089  0.0456  1.0000  -5.4727   0.0000   0.2213
  14.800   1.6162   0.01855   0.01329   0.0101  0.0432  1.0000  -5.5842   0.0000   0.2202
  15.000   1.6247   0.01926   0.01401   0.0115  0.0407  1.0000  -5.6892   0.0000   0.2190
  15.200   1.6350   0.01988   0.01464   0.0125  0.0390  1.0000  -5.8022   0.0000   0.2180
  15.400   1.6437   0.02062   0.01540   0.0137  0.0372  1.0000  -5.9097   0.0000   0.2169
  15.600   1.6517   0.02143   0.01622   0.0148  0.0355  1.0000  -6.0172   0.0000   0.2159
  15.800   1.6610   0.02220   0.01701   0.0157  0.0343  1.0000  -6.1349   0.0000   0.2149
  16.000   1.6686   0.02310   0.01793   0.0166  0.0329  1.0000  -6.2466   0.0000   0.2140
  16.200   1.6745   0.02416   0.01901   0.0176  0.0313  1.0000  -6.3512   0.0000   0.2130
  16.400   1.6817   0.02517   0.02005   0.0183  0.0302  1.0000  -6.4618   0.0000   0.2121
  16.600   1.6880   0.02629   0.02120   0.0190  0.0291  1.0000  -6.5692   0.0000   0.2113
  16.800   1.6920   0.02763   0.02257   0.0197  0.0278  1.0000  -6.6665   0.0000   0.2105
  17.000   1.6948   0.02914   0.02411   0.0202  0.0264  1.0000  -6.7587   0.0000   0.2097
  17.200   1.6995   0.03055   0.02555   0.0206  0.0256  1.0000  -6.8597   0.0000   0.2090
  17.400   1.7028   0.03212   0.02717   0.0208  0.0248  1.0000  -6.9540   0.0000   0.2084
  17.600   1.7045   0.03390   0.02899   0.0210  0.0240  1.0000  -7.0412   0.0000   0.2078
  17.800   1.7043   0.03593   0.03107   0.0211  0.0232  1.0000  -7.1195   0.0000   0.2072
  18.000   1.7032   0.03814   0.03333   0.0210  0.0224  1.0000  -7.1922   0.0000   0.2067
  18.200   1.7028   0.04031   0.03555   0.0208  0.0220  1.0000  -7.2685   0.0000   0.2063
  18.400   1.7013   0.04268   0.03798   0.0204  0.0216  1.0000  -7.3390   0.0000   0.2060
  18.600   1.6982   0.04529   0.04065   0.0199  0.0211  1.0000  -7.4012   0.0000   0.2057
  18.800   1.6930   0.04823   0.04365   0.0192  0.0207  1.0000  -7.4519   0.0000   0.2055
  19.000   1.6856   0.05146   0.04695   0.0184  0.0203  1.0000  -7.4911   0.0000   0.2053
  19.200   1.6760   0.05507   0.05063   0.0174  0.0199  1.0000  -7.5186   0.0000   0.2053
  19.400   1.6638   0.05908   0.05473   0.0161  0.0195  1.0000  -7.5332   0.0000   0.2054
  19.600   1.6492   0.06345   0.05918   0.0147  0.0192  1.0000  -7.5329   0.0000   0.2056
  19.800   1.6326   0.06818   0.06400   0.0131  0.0189  1.0000  -7.5193   0.0000   0.2059
  20.000   1.6140   0.07327   0.06919   0.0112  0.0187  1.0000  -7.4921   0.0000   0.2063
  20.400   1.5714   0.08436   0.08048   0.0071  0.0184  1.0000  -7.3996   0.0000   0.2076
  20.600   1.5478   0.09039   0.08661   0.0047  0.0184  1.0000  -7.3349   0.0000   0.2084
  20.800   1.5218   0.09680   0.09314   0.0021  0.0183  1.0000  -7.2530   0.0000   0.2095
  21.000   1.4954   0.10338   0.09982  -0.0006  0.0183  1.0000  -7.1641   0.0000   0.2107
  21.200   1.4712   0.10973   0.10627  -0.0034  0.0182  1.0000  -7.0847   0.0000   0.2120
  21.400   1.4457   0.11637   0.11302  -0.0064  0.0182  1.0000  -6.9926   0.0000   0.2136
  21.600   1.4238   0.12248   0.11922  -0.0092  0.0181  1.0000  -6.9193   0.0000   0.2151
  21.800   1.4043   0.12837   0.12519  -0.0121  0.0180  1.0000  -6.8564   0.0000   0.2167
  22.000   1.3866   0.13406   0.13095  -0.0150  0.0178  1.0000  -6.8010   0.0000   0.2183
  22.200   1.3703   0.13956   0.13653  -0.0179  0.0176  1.0000  -6.7515   0.0000   0.2200
  22.400   1.3554   0.14486   0.14190  -0.0208  0.0174  1.0000  -6.7074   0.0000   0.2217
  22.600   1.3421   0.14997   0.14707  -0.0236  0.0172  1.0000  -6.6710   0.0000   0.2235
  22.800   1.3325   0.15453   0.15168  -0.0263  0.0169  1.0000  -6.6571   0.0000   0.2251
  23.000   1.3218   0.15934   0.15654  -0.0292  0.0166  1.0000  -6.6318   0.0000   0.2268
  23.200   1.3115   0.16413   0.16138  -0.0321  0.0162  1.0000  -6.6066   0.0000   0.2287
  23.400   1.3046   0.16837   0.16566  -0.0348  0.0158  1.0000  -6.6035   0.0000   0.2304
  23.600   1.2955   0.17303   0.17037  -0.0378  0.0154  1.0000  -6.5806   0.0000   0.2323
  23.800   1.2912   0.17678   0.17415  -0.0403  0.0150  1.0000  -6.5929   0.0000   0.2338
  24.000   1.2853   0.18090   0.17832  -0.0431  0.0148  1.0000  -6.5901   0.0000   0.2355
  24.200   1.2832   0.18428   0.18174  -0.0455  0.0145  1.0000  -6.6173   0.0000   0.2368
  24.400   1.2782   0.18829   0.18579  -0.0483  0.0143  1.0000  -6.6169   0.0000   0.2386
  24.600   1.2760   0.19177   0.18929  -0.0508  0.0140  1.0000  -6.6396   0.0000   0.2400
  24.800   1.2729   0.19547   0.19303  -0.0535  0.0136  1.0000  -6.6517   0.0000   0.2417
  25.000   1.2696   0.19923   0.19682  -0.0562  0.0133  1.0000  -6.6593   0.0000   0.2434


