xflr5 v6.47

 Calculated polar for: NACA 23015

 1 1 Reynolds number fixed          Mach number fixed         

 xtrf =   1.000 (top)        1.000 (bottom)
 Mach =   0.000     Re =     0.500 e 6     Ncrit =   5.000

  alpha     CL        CD       CDp       Cm    Top Xtr Bot Xtr   Cpmin    Chinge    XCp    
 ------- -------- --------- --------- -------- ------- ------- -------- --------- ---------
 -15.000  -1.1251   0.04243   0.03746  -0.0513  1.0000  0.0176  -8.9059   0.0000   0.1843
 -14.800  -1.1245   0.04040   0.03531  -0.0513  1.0000  0.0177  -8.8325   0.0000   0.1847
 -14.600  -1.1227   0.03855   0.03335  -0.0512  1.0000  0.0179  -8.7507   0.0000   0.1852
 -14.400  -1.1200   0.03687   0.03156  -0.0508  1.0000  0.0180  -8.6611   0.0000   0.1858
 -14.200  -1.1163   0.03534   0.02993  -0.0503  1.0000  0.0181  -8.5642   0.0000   0.1865
 -14.000  -1.1116   0.03395   0.02844  -0.0496  1.0000  0.0182  -8.4607   0.0000   0.1873
 -13.800  -1.1061   0.03268   0.02707  -0.0488  1.0000  0.0184  -8.3510   0.0000   0.1881
 -13.600  -1.0996   0.03153   0.02582  -0.0480  1.0000  0.0185  -8.2356   0.0000   0.1890
 -13.400  -1.0951   0.03027   0.02450  -0.0468  1.0000  0.0186  -8.1305   0.0000   0.1902
 -13.200  -1.0890   0.02920   0.02337  -0.0457  1.0000  0.0188  -8.0131   0.0000   0.1914
 -13.000  -1.0816   0.02827   0.02240  -0.0445  1.0000  0.0190  -7.8867   0.0000   0.1925
 -12.800  -1.0732   0.02745   0.02153  -0.0432  1.0000  0.0192  -7.7543   0.0000   0.1937
 -12.600  -1.0641   0.02670   0.02074  -0.0419  1.0000  0.0193  -7.6181   0.0000   0.1949
 -12.400  -1.0546   0.02602   0.02001  -0.0405  1.0000  0.0195  -7.4800   0.0000   0.1961
 -12.200  -1.0448   0.02538   0.01933  -0.0391  1.0000  0.0197  -7.3469   0.0000   0.1974
 -12.000  -1.0350   0.02478   0.01868  -0.0375  1.0000  0.0199  -7.2184   0.0000   0.1989
 -11.800  -1.0254   0.02421   0.01807  -0.0358  1.0000  0.0202  -7.0915   0.0000   0.2005
 -11.600  -1.0161   0.02368   0.01749  -0.0339  1.0000  0.0204  -6.9664   0.0000   0.2023
 -11.400  -1.0069   0.02319   0.01696  -0.0319  1.0000  0.0207  -6.8424   0.0000   0.2042
 -11.200  -0.9969   0.02272   0.01644  -0.0300  1.0000  0.0209  -6.7156   0.0000   0.2061
 -11.000  -0.9861   0.02225   0.01593  -0.0283  1.0000  0.0212  -6.5868   0.0000   0.2078
 -10.800  -0.9755   0.02180   0.01543  -0.0264  1.0000  0.0216  -6.4603   0.0000   0.2097
 -10.600  -0.9650   0.02138   0.01496  -0.0244  1.0000  0.0218  -6.3355   0.0000   0.2117
 -10.400  -0.9545   0.02098   0.01450  -0.0224  1.0000  0.0221  -6.2113   0.0000   0.2137
 -10.200  -0.9443   0.02058   0.01405  -0.0203  1.0000  0.0223  -6.0894   0.0000   0.2159
 -10.000  -0.9360   0.02008   0.01354  -0.0180  1.0000  0.0226  -5.9763   0.0000   0.2185
  -9.800  -0.9269   0.01968   0.01313  -0.0157  1.0000  0.0229  -5.8574   0.0000   0.2210
  -9.600  -0.9035   0.01920   0.01264  -0.0163  0.9981  0.0233  -5.6833   0.0000   0.2201
  -9.400  -0.8789   0.01876   0.01218  -0.0171  0.9960  0.0237  -5.5065   0.0000   0.2188
  -9.200  -0.8540   0.01832   0.01172  -0.0179  0.9937  0.0241  -5.3312   0.0000   0.2174
  -9.000  -0.8294   0.01789   0.01127  -0.0187  0.9912  0.0246  -5.1602   0.0000   0.2160
  -8.800  -0.8045   0.01747   0.01081  -0.0195  0.9886  0.0251  -4.9911   0.0000   0.2145
  -8.600  -0.7792   0.01705   0.01036  -0.0203  0.9862  0.0257  -4.8235   0.0000   0.2128
  -8.400  -0.7546   0.01665   0.00992  -0.0210  0.9828  0.0262  -4.6608   0.0000   0.2112
  -8.200  -0.7298   0.01622   0.00946  -0.0218  0.9799  0.0267  -4.4985   0.0000   0.2093
  -8.000  -0.7070   0.01583   0.00909  -0.0220  0.9751  0.0274  -4.3417   0.0000   0.2081
  -7.800  -0.6827   0.01551   0.00877  -0.0226  0.9708  0.0281  -4.1808   0.0000   0.2063
  -7.600  -0.6592   0.01520   0.00845  -0.0229  0.9656  0.0288  -4.0256   0.0000   0.2047
  -7.400  -0.6364   0.01489   0.00811  -0.0231  0.9597  0.0296  -3.8861   0.0000   0.2033
  -7.200  -0.6132   0.01458   0.00777  -0.0233  0.9539  0.0303  -3.7498   0.0000   0.2016
  -7.000  -0.5912   0.01428   0.00744  -0.0233  0.9467  0.0310  -3.6192   0.0000   0.2004
  -6.800  -0.5705   0.01394   0.00711  -0.0230  0.9385  0.0318  -3.4918   0.0000   0.1996
  -6.600  -0.5494   0.01367   0.00683  -0.0227  0.9299  0.0326  -3.3636   0.0000   0.1986
  -6.400  -0.5285   0.01342   0.00656  -0.0224  0.9205  0.0335  -3.2381   0.0000   0.1977
  -6.200  -0.5079   0.01319   0.00630  -0.0219  0.9104  0.0345  -3.1155   0.0000   0.1969
  -6.000  -0.4874   0.01299   0.00605  -0.0214  0.8994  0.0355  -2.9950   0.0000   0.1962
  -5.800  -0.4675   0.01275   0.00579  -0.0209  0.8875  0.0366  -2.8769   0.0000   0.1956
  -5.600  -0.4473   0.01255   0.00557  -0.0203  0.8749  0.0379  -2.7586   0.0000   0.1949
  -5.400  -0.4270   0.01237   0.00534  -0.0198  0.8615  0.0392  -2.6426   0.0000   0.1940
  -5.200  -0.4066   0.01221   0.00512  -0.0193  0.8474  0.0404  -2.5289   0.0000   0.1930
  -5.000  -0.3865   0.01203   0.00490  -0.0187  0.8325  0.0417  -2.4170   0.0000   0.1920
  -4.800  -0.3662   0.01188   0.00470  -0.0182  0.8168  0.0433  -2.3117   0.0000   0.1908
  -4.600  -0.3457   0.01176   0.00451  -0.0177  0.8005  0.0451  -2.2100   0.0000   0.1893
  -4.400  -0.3253   0.01165   0.00432  -0.0172  0.7813  0.0470  -2.1101   0.0000   0.1877
  -4.200  -0.3053   0.01155   0.00415  -0.0166  0.7583  0.0492  -2.0116   0.0000   0.1861
  -4.000  -0.2850   0.01149   0.00398  -0.0160  0.7335  0.0515  -1.9146   0.0000   0.1841
  -3.800  -0.2648   0.01140   0.00383  -0.0155  0.7106  0.0539  -1.8190   0.0000   0.1817
  -3.600  -0.2440   0.01133   0.00368  -0.0151  0.6916  0.0568  -1.7238   0.0000   0.1783
  -3.400  -0.2232   0.01125   0.00354  -0.0147  0.6743  0.0601  -1.6298   0.0000   0.1741
  -3.200  -0.2023   0.01118   0.00342  -0.0144  0.6571  0.0642  -1.5368   0.0000   0.1688
  -3.000  -0.1814   0.01110   0.00330  -0.0140  0.6400  0.0690  -1.4510   0.0000   0.1623
  -2.800  -0.1604   0.01103   0.00319  -0.0137  0.6230  0.0743  -1.3681   0.0000   0.1539
  -2.600  -0.1394   0.01096   0.00308  -0.0134  0.6063  0.0815  -1.2865   0.0000   0.1430
  -2.400  -0.1185   0.01088   0.00297  -0.0131  0.5896  0.0916  -1.2064   0.0000   0.1283
  -2.200  -0.0979   0.01077   0.00286  -0.0127  0.5729  0.1070  -1.1281   0.0000   0.1079
  -1.600  -0.0463   0.00933   0.00235  -0.0104  0.5272  0.3932  -0.9272   0.0000   0.0096
  -1.400  -0.0267   0.00916   0.00229  -0.0099  0.5112  0.4407  -0.8607   0.0000  -0.1424
  -1.200  -0.0068   0.00903   0.00225  -0.0094  0.4954  0.4814  -0.7947   0.0000  -1.1986
  -1.000   0.0135   0.00895   0.00222  -0.0089  0.4803  0.5157  -0.7292   0.0000   0.9354
  -0.800   0.0338   0.00888   0.00221  -0.0085  0.4650  0.5477  -0.6978   0.0000   0.5057
  -0.600   0.0543   0.00884   0.00220  -0.0081  0.4493  0.5767  -0.7242   0.0000   0.3985
  -0.400   0.0747   0.00881   0.00220  -0.0076  0.4337  0.6049  -0.7508   0.0000   0.3499
  -0.200   0.0953   0.00880   0.00221  -0.0072  0.4190  0.6316  -0.7777   0.0000   0.3223
   0.000   0.1159   0.00879   0.00222  -0.0068  0.4049  0.6582  -0.8047   0.0000   0.3044
   0.200   0.1363   0.00878   0.00225  -0.0063  0.3905  0.6864  -0.8326   0.0000   0.2915
   0.400   0.1565   0.00878   0.00229  -0.0058  0.3762  0.7158  -0.8609   0.0000   0.2817
   0.600   0.1771   0.00880   0.00234  -0.0053  0.3625  0.7392  -0.8896   0.0000   0.2744
   0.800   0.1984   0.00886   0.00238  -0.0050  0.3498  0.7540  -0.9190   0.0000   0.2694
   1.000   0.2198   0.00893   0.00242  -0.0048  0.3376  0.7674  -0.9487   0.0000   0.2655
   1.200   0.2412   0.00900   0.00247  -0.0045  0.3256  0.7807  -0.9794   0.0000   0.2623
   1.400   0.2626   0.00908   0.00253  -0.0042  0.3143  0.7939  -1.0107   0.0000   0.2595
   1.600   0.2840   0.00916   0.00259  -0.0039  0.3039  0.8069  -1.0423   0.0000   0.2572
   1.800   0.3054   0.00924   0.00266  -0.0037  0.2949  0.8196  -1.0741   0.0000   0.2551
   2.000   0.3267   0.00934   0.00274  -0.0034  0.2862  0.8321  -1.1060   0.0000   0.2533
   2.200   0.3482   0.00942   0.00282  -0.0031  0.2780  0.8443  -1.1391   0.0000   0.2518
   2.400   0.3696   0.00952   0.00290  -0.0028  0.2706  0.8561  -1.1729   0.0000   0.2503
   2.600   0.3910   0.00963   0.00299  -0.0026  0.2636  0.8675  -1.2070   0.0000   0.2491
   2.800   0.4125   0.00973   0.00308  -0.0023  0.2580  0.8786  -1.2413   0.0000   0.2479
   3.000   0.4340   0.00984   0.00318  -0.0020  0.2522  0.8890  -1.2758   0.0000   0.2469
   3.200   0.4556   0.00996   0.00329  -0.0018  0.2471  0.8986  -1.3116   0.0000   0.2461
   3.400   0.4774   0.01008   0.00340  -0.0016  0.2420  0.9078  -1.3485   0.0000   0.2453
   3.600   0.4991   0.01022   0.00352  -0.0014  0.2375  0.9166  -1.3854   0.0000   0.2446
   3.800   0.5211   0.01033   0.00362  -0.0013  0.2336  0.9251  -1.4229   0.0000   0.2441
   4.000   0.5437   0.01047   0.00375  -0.0013  0.2295  0.9324  -1.4612   0.0000   0.2439
   4.200   0.5663   0.01062   0.00388  -0.0014  0.2258  0.9392  -1.5011   0.0000   0.2437
   4.400   0.5890   0.01075   0.00400  -0.0014  0.2221  0.9461  -1.5417   0.0000   0.2435
   4.600   0.6130   0.01091   0.00414  -0.0018  0.2185  0.9515  -1.5839   0.0000   0.2439
   4.800   0.6364   0.01108   0.00428  -0.0020  0.2154  0.9570  -1.6257   0.0000   0.2440
   5.000   0.6607   0.01121   0.00442  -0.0025  0.2124  0.9621  -1.6693   0.0000   0.2444
   5.200   0.6855   0.01137   0.00456  -0.0031  0.2090  0.9664  -1.7151   0.0000   0.2449
   5.400   0.7098   0.01155   0.00471  -0.0036  0.2059  0.9708  -1.7608   0.0000   0.2453
   5.600   0.7352   0.01171   0.00487  -0.0043  0.2034  0.9743  -1.8078   0.0000   0.2460
   5.800   0.7611   0.01187   0.00503  -0.0051  0.2005  0.9775  -1.8562   0.0000   0.2467
   6.000   0.7862   0.01204   0.00519  -0.0059  0.1975  0.9809  -1.9059   0.0000   0.2472
   6.200   0.8133   0.01224   0.00536  -0.0070  0.1946  0.9829  -1.9581   0.0000   0.2482
   6.400   0.8396   0.01241   0.00553  -0.0080  0.1922  0.9855  -2.0098   0.0000   0.2489
   6.600   0.8660   0.01257   0.00571  -0.0090  0.1895  0.9879  -2.0631   0.0000   0.2496
   6.800   0.8929   0.01276   0.00589  -0.0102  0.1867  0.9897  -2.1187   0.0000   0.2503
   7.000   0.9186   0.01297   0.00608  -0.0111  0.1841  0.9921  -2.1734   0.0000   0.2508
   7.200   0.9452   0.01315   0.00626  -0.0122  0.1818  0.9940  -2.2298   0.0000   0.2514
   7.400   0.9718   0.01332   0.00646  -0.0133  0.1792  0.9958  -2.2888   0.0000   0.2520
   7.600   0.9979   0.01352   0.00666  -0.0143  0.1765  0.9977  -2.3477   0.0000   0.2524
   7.800   1.0240   0.01374   0.00686  -0.0154  0.1740  0.9993  -2.4077   0.0000   0.2528
   8.000   1.0441   0.01392   0.00705  -0.0151  0.1720  1.0000  -2.4620   0.0000   0.2521
   8.200   1.0595   0.01407   0.00723  -0.0139  0.1699  1.0000  -2.5101   0.0000   0.2504
   8.400   1.0746   0.01423   0.00741  -0.0126  0.1677  1.0000  -2.5588   0.0000   0.2488
   8.600   1.0895   0.01442   0.00760  -0.0113  0.1656  1.0000  -2.6092   0.0000   0.2471
   8.800   1.1040   0.01464   0.00780  -0.0100  0.1637  1.0000  -2.6593   0.0000   0.2455
   9.000   1.1196   0.01481   0.00801  -0.0088  0.1618  1.0000  -2.7127   0.0000   0.2440
   9.200   1.1352   0.01499   0.00821  -0.0076  0.1596  1.0000  -2.7677   0.0000   0.2426
   9.400   1.1505   0.01519   0.00843  -0.0064  0.1575  1.0000  -2.8236   0.0000   0.2412
   9.600   1.1654   0.01541   0.00865  -0.0052  0.1554  1.0000  -2.8810   0.0000   0.2398
   9.800   1.1800   0.01566   0.00890  -0.0039  0.1534  1.0000  -2.9398   0.0000   0.2384
  10.000   1.1962   0.01586   0.00914  -0.0029  0.1514  1.0000  -3.0031   0.0000   0.2372
  10.200   1.2121   0.01608   0.00939  -0.0019  0.1491  1.0000  -3.0696   0.0000   0.2360
  10.400   1.2276   0.01633   0.00965  -0.0009  0.1469  1.0000  -3.1384   0.0000   0.2349
  10.600   1.2425   0.01662   0.00994   0.0002  0.1447  1.0000  -3.2089   0.0000   0.2337
  10.800   1.2584   0.01687   0.01022   0.0011  0.1427  1.0000  -3.2847   0.0000   0.2326
  11.000   1.2742   0.01713   0.01052   0.0021  0.1403  1.0000  -3.3650   0.0000   0.2316
  11.200   1.2891   0.01742   0.01082   0.0031  0.1379  1.0000  -3.4455   0.0000   0.2305
  11.400   1.3021   0.01774   0.01115   0.0045  0.1356  1.0000  -3.5259   0.0000   0.2291
  11.600   1.3159   0.01804   0.01149   0.0057  0.1335  1.0000  -3.6085   0.0000   0.2279
  11.800   1.3298   0.01835   0.01183   0.0069  0.1310  1.0000  -3.6971   0.0000   0.2267
  12.000   1.3429   0.01871   0.01221   0.0081  0.1285  1.0000  -3.7847   0.0000   0.2255
  12.400   1.3691   0.01949   0.01304   0.0103  0.1237  1.0000  -3.9665   0.0000   0.2233
  12.600   1.3822   0.01990   0.01349   0.0114  0.1210  1.0000  -4.0615   0.0000   0.2223
  12.800   1.3940   0.02040   0.01400   0.0125  0.1184  1.0000  -4.1536   0.0000   0.2212
  13.000   1.4065   0.02088   0.01452   0.0135  0.1159  1.0000  -4.2480   0.0000   0.2202
  13.200   1.4190   0.02137   0.01505   0.0144  0.1132  1.0000  -4.3466   0.0000   0.2192
  13.400   1.4299   0.02197   0.01567   0.0155  0.1105  1.0000  -4.4439   0.0000   0.2182
  13.600   1.4407   0.02260   0.01633   0.0165  0.1080  1.0000  -4.5409   0.0000   0.2172
  13.800   1.4521   0.02321   0.01698   0.0173  0.1053  1.0000  -4.6409   0.0000   0.2163
  14.000   1.4618   0.02395   0.01776   0.0182  0.1025  1.0000  -4.7357   0.0000   0.2154
  14.200   1.4708   0.02476   0.01860   0.0191  0.1000  1.0000  -4.8286   0.0000   0.2144
  14.400   1.4807   0.02554   0.01943   0.0199  0.0973  1.0000  -4.9253   0.0000   0.2136
  14.600   1.4886   0.02648   0.02040   0.0207  0.0945  1.0000  -5.0214   0.0000   0.2127
  14.800   1.4958   0.02752   0.02148   0.0214  0.0921  1.0000  -5.1152   0.0000   0.2119
  15.000   1.5036   0.02855   0.02256   0.0220  0.0894  1.0000  -5.2117   0.0000   0.2111
  15.200   1.5093   0.02979   0.02383   0.0226  0.0867  1.0000  -5.3002   0.0000   0.2103
  15.400   1.5143   0.03112   0.02521   0.0231  0.0844  1.0000  -5.3866   0.0000   0.2096
  15.600   1.5196   0.03249   0.02664   0.0234  0.0817  1.0000  -5.4738   0.0000   0.2090
  15.800   1.5223   0.03415   0.02833   0.0237  0.0791  1.0000  -5.5508   0.0000   0.2083
  16.000   1.5248   0.03588   0.03012   0.0239  0.0769  1.0000  -5.6267   0.0000   0.2078
  16.200   1.5270   0.03770   0.03200   0.0239  0.0746  1.0000  -5.7013   0.0000   0.2073
  16.400   1.5266   0.03985   0.03421   0.0238  0.0724  1.0000  -5.7646   0.0000   0.2069
  16.600   1.5251   0.04218   0.03661   0.0235  0.0704  1.0000  -5.8226   0.0000   0.2065
  16.800   1.5238   0.04457   0.03906   0.0231  0.0683  1.0000  -5.8838   0.0000   0.2062
  17.000   1.5194   0.04737   0.04193   0.0225  0.0663  1.0000  -5.9323   0.0000   0.2061
  17.400   1.5066   0.05368   0.04839   0.0209  0.0629  1.0000  -6.0071   0.0000   0.2060
  17.600   1.4984   0.05718   0.05198   0.0198  0.0612  1.0000  -6.0344   0.0000   0.2061
  17.800   1.4872   0.06117   0.05605   0.0185  0.0597  1.0000  -6.0453   0.0000   0.2063
  18.000   1.4730   0.06561   0.06058   0.0169  0.0585  1.0000  -6.0399   0.0000   0.2067
  18.200   1.4599   0.07001   0.06508   0.0153  0.0573  1.0000  -6.0378   0.0000   0.2071
  18.400   1.4462   0.07456   0.06972   0.0136  0.0562  1.0000  -6.0309   0.0000   0.2077
  18.600   1.4299   0.07952   0.07478   0.0117  0.0551  1.0000  -6.0085   0.0000   0.2083
  18.800   1.4115   0.08488   0.08024   0.0095  0.0541  1.0000  -5.9730   0.0000   0.2092
  19.000   1.3917   0.09054   0.08599   0.0072  0.0532  1.0000  -5.9267   0.0000   0.2102
  19.200   1.3707   0.09643   0.09197   0.0048  0.0524  1.0000  -5.8712   0.0000   0.2114
  19.400   1.3523   0.10199   0.09762   0.0024  0.0515  1.0000  -5.8270   0.0000   0.2126
  19.600   1.3365   0.10723   0.10295   0.0001  0.0505  1.0000  -5.7939   0.0000   0.2138
  19.800   1.3206   0.11254   0.10835  -0.0023  0.0495  1.0000  -5.7575   0.0000   0.2151
  20.000   1.3044   0.11793   0.11381  -0.0048  0.0485  1.0000  -5.7170   0.0000   0.2165
  20.200   1.2881   0.12343   0.11938  -0.0074  0.0474  1.0000  -5.6719   0.0000   0.2181
  20.400   1.2721   0.12897   0.12497  -0.0102  0.0464  1.0000  -5.6254   0.0000   0.2198
  20.600   1.2620   0.13357   0.12963  -0.0125  0.0454  1.0000  -5.6113   0.0000   0.2212
  20.800   1.2523   0.13812   0.13425  -0.0149  0.0442  1.0000  -5.5976   0.0000   0.2227
  21.000   1.2424   0.14275   0.13893  -0.0174  0.0430  1.0000  -5.5798   0.0000   0.2243
  21.200   1.2326   0.14743   0.14364  -0.0200  0.0418  1.0000  -5.5602   0.0000   0.2260
  21.400   1.2224   0.15225   0.14849  -0.0228  0.0408  1.0000  -5.5347   0.0000   0.2279
  21.600   1.2180   0.15605   0.15235  -0.0250  0.0397  1.0000  -5.5451   0.0000   0.2293
  21.800   1.2128   0.16005   0.15640  -0.0274  0.0384  1.0000  -5.5478   0.0000   0.2308
  22.000   1.2068   0.16423   0.16061  -0.0299  0.0373  1.0000  -5.5432   0.0000   0.2326
  22.200   1.2008   0.16844   0.16484  -0.0326  0.0362  1.0000  -5.5363   0.0000   0.2344
  22.400   1.1968   0.17228   0.16871  -0.0350  0.0352  1.0000  -5.5410   0.0000   0.2360
  22.600   1.1947   0.17577   0.17225  -0.0373  0.0341  1.0000  -5.5584   0.0000   0.2375
  22.800   1.1920   0.17941   0.17593  -0.0397  0.0331  1.0000  -5.5691   0.0000   0.2391
  23.000   1.1886   0.18322   0.17976  -0.0423  0.0321  1.0000  -5.5729   0.0000   0.2408
  23.200   1.1861   0.18689   0.18344  -0.0448  0.0312  1.0000  -5.5843   0.0000   0.2425
  23.400   1.1847   0.19032   0.18691  -0.0472  0.0304  1.0000  -5.6049   0.0000   0.2440
  23.600   1.1846   0.19354   0.19017  -0.0495  0.0296  1.0000  -5.6344   0.0000   0.2454
  23.800   1.1842   0.19683   0.19351  -0.0519  0.0287  1.0000  -5.6597   0.0000   0.2469
  24.000   1.1828   0.20035   0.19705  -0.0545  0.0279  1.0000  -5.6750   0.0000   0.2486
  24.200   1.1823   0.20369   0.20040  -0.0570  0.0271  1.0000  -5.6972   0.0000   0.2502
  24.400   1.1819   0.20701   0.20372  -0.0595  0.0264  1.0000  -5.7192   0.0000   0.2518
  24.600   1.1824   0.21015   0.20692  -0.0618  0.0257  1.0000  -5.7464   0.0000   0.2532
  24.800   1.1831   0.21327   0.21008  -0.0642  0.0250  1.0000  -5.7746   0.0000   0.2546
  25.000   1.1832   0.21653   0.21337  -0.0668  0.0242  1.0000  -5.7958   0.0000   0.2562


