xflr5 v6.47

 Calculated polar for: NACA24018_theta30_Ku4.5_Kl0.5_d0.10_delta2.45

 1 1 Reynolds number fixed          Mach number fixed         

 xtrf =   0.250 (top)        0.250 (bottom)
 Mach =   0.000     Re =     3.500 e 6     Ncrit =   5.000

  alpha     CL        CD       CDp       Cm    Top Xtr Bot Xtr   Cpmin    Chinge    XCp    
 ------- -------- --------- --------- -------- ------- ------- -------- --------- ---------
 -15.000  -0.9255   0.01861   0.01228  -0.1142  0.2500  0.0231  -6.4695   0.0000   0.1024
 -14.500  -0.9002   0.01769   0.01132  -0.1105  0.2500  0.0238  -6.2013   0.0000   0.1039
 -14.000  -0.8750   0.01688   0.01048  -0.1065  0.2500  0.0246  -5.9365   0.0000   0.1057
 -13.500  -0.8519   0.01618   0.00975  -0.1019  0.2500  0.0252  -5.6825   0.0000   0.1088
 -13.000  -0.8417   0.01553   0.00907  -0.0947  0.2500  0.0258  -5.4745   0.0000   0.1169
 -12.500  -0.8090   0.01486   0.00838  -0.0914  0.2500  0.0268  -5.1960   0.0000   0.1171
 -12.000  -0.7681   0.01428   0.00778  -0.0894  0.2500  0.0279  -4.9017   0.0000   0.1141
 -11.500  -0.7214   0.01378   0.00725  -0.0883  0.2500  0.0286  -4.6022   0.0000   0.1083
 -11.000  -0.6712   0.01329   0.00674  -0.0879  0.2500  0.0301  -4.2998   0.0000   0.1000
 -10.500  -0.6178   0.01286   0.00630  -0.0879  0.2500  0.0316  -3.9957   0.0000   0.0887
 -10.000  -0.5621   0.01251   0.00593  -0.0883  0.2500  0.0326  -3.6935   0.0000   0.0738
  -9.500  -0.5044   0.01214   0.00556  -0.0890  0.2500  0.0349  -3.4073   0.0000   0.0541
  -9.000  -0.4455   0.01186   0.00527  -0.0898  0.2500  0.0365  -3.1258   0.0000   0.0283
  -8.500  -0.3852   0.01158   0.00499  -0.0909  0.2500  0.0392  -2.8572   0.0000  -0.0072
  -8.000  -0.3244   0.01136   0.00477  -0.0921  0.2500  0.0413  -2.6000   0.0000  -0.0564
  -7.500  -0.2626   0.01115   0.00457  -0.0934  0.2500  0.0447  -2.3491   0.0000  -0.1308
  -7.000  -0.2003   0.01097   0.00441  -0.0947  0.2500  0.0488  -2.1055   0.0000  -0.2526
  -6.500  -0.1378   0.01083   0.00427  -0.0961  0.2500  0.0532  -1.8702   0.0000  -0.4858
  -6.000  -0.0749   0.01071   0.00417  -0.0975  0.2500  0.0584  -1.6526   0.0000  -1.1136
  -5.500  -0.0119   0.01061   0.00409  -0.0989  0.2500  0.0640  -1.4556   0.0000  -8.3993
  -5.000   0.0516   0.01053   0.00404  -0.1004  0.2500  0.0722  -1.2722   0.0000   2.2625
  -4.500   0.1152   0.01046   0.00401  -0.1019  0.2500  0.0814  -1.0954   0.0000   1.1596
  -4.000   0.1797   0.01041   0.00400  -0.1036  0.2500  0.0949  -0.9310   0.0000   0.8395
  -3.500   0.2449   0.01036   0.00402  -0.1054  0.2500  0.1142  -0.8155   0.0000   0.6877
  -3.000   0.3109   0.01033   0.00407  -0.1074  0.2500  0.1392  -0.8842   0.0000   0.5993
  -2.500   0.3810   0.01027   0.00415  -0.1103  0.2500  0.1865  -0.9566   0.0000   0.5411
  -2.000   0.4545   0.01022   0.00427  -0.1139  0.2500  0.2500  -1.0334   0.0000   0.5006
  -1.500   0.5141   0.01033   0.00438  -0.1144  0.2500  0.2500  -1.1067   0.0000   0.4713
  -1.000   0.5735   0.01045   0.00449  -0.1149  0.2500  0.2500  -1.1816   0.0000   0.4481
  -0.500   0.6325   0.01059   0.00462  -0.1153  0.2500  0.2500  -1.2571   0.0000   0.4292
   0.000   0.6913   0.01073   0.00477  -0.1157  0.2500  0.2500  -1.3359   0.0000   0.4134
   0.500   0.7496   0.01089   0.00493  -0.1160  0.2469  0.2500  -1.4166   0.0000   0.4001
   1.000   0.8068   0.01113   0.00512  -0.1161  0.2375  0.2500  -1.4974   0.0000   0.3886
   1.500   0.8640   0.01133   0.00532  -0.1162  0.2324  0.2500  -1.5856   0.0000   0.3785
   2.000   0.9202   0.01158   0.00554  -0.1162  0.2254  0.2500  -1.6757   0.0000   0.3696
   2.500   0.9761   0.01183   0.00578  -0.1161  0.2187  0.2500  -1.7668   0.0000   0.3616
   3.000   1.0307   0.01214   0.00605  -0.1157  0.2101  0.2500  -1.8578   0.0000   0.3543
   3.500   1.0857   0.01241   0.00633  -0.1155  0.2057  0.2500  -1.9580   0.0000   0.3477
   4.000   1.1391   0.01275   0.00665  -0.1149  0.1979  0.2500  -2.0593   0.0000   0.3416
   4.500   1.1922   0.01309   0.00698  -0.1144  0.1910  0.2500  -2.1617   0.0000   0.3360
   5.000   1.2439   0.01348   0.00736  -0.1136  0.1841  0.2500  -2.2689   0.0000   0.3306
   5.500   1.2954   0.01385   0.00774  -0.1127  0.1787  0.2500  -2.3822   0.0000   0.3257
   6.000   1.3433   0.01436   0.00823  -0.1113  0.1698  0.2500  -2.4927   0.0000   0.3208
   6.500   1.3918   0.01484   0.00871  -0.1099  0.1638  0.2500  -2.6095   0.0000   0.3162
   7.000   1.4391   0.01538   0.00924  -0.1085  0.1571  0.2500  -2.7378   0.0000   0.3118
   7.500   1.4848   0.01598   0.00984  -0.1067  0.1490  0.2500  -2.8662   0.0000   0.3075
   8.000   1.5295   0.01661   0.01047  -0.1049  0.1414  0.2500  -2.9985   0.0000   0.3034
   8.500   1.5700   0.01741   0.01125  -0.1024  0.1328  0.2500  -3.1364   0.0000   0.2993
   9.000   1.6101   0.01824   0.01208  -0.0999  0.1248  0.2500  -3.2914   0.0000   0.2953
   9.500   1.6497   0.01909   0.01294  -0.0974  0.1182  0.2500  -3.4528   0.0000   0.2914
  10.000   1.6838   0.02021   0.01404  -0.0942  0.1087  0.2500  -3.6104   0.0000   0.2874
  10.500   1.7173   0.02137   0.01521  -0.0910  0.1012  0.2500  -3.7889   0.0000   0.2835
  11.000   1.7478   0.02272   0.01656  -0.0875  0.0934  0.2500  -3.9668   0.0000   0.2797
  11.500   1.7740   0.02433   0.01817  -0.0836  0.0854  0.2500  -4.1427   0.0000   0.2758
  12.000   1.7975   0.02618   0.02004  -0.0797  0.0781  0.2500  -4.3289   0.0000   0.2720
  12.500   1.8204   0.02818   0.02207  -0.0761  0.0721  0.2500  -4.5188   0.0000   0.2684
  13.000   1.8404   0.03047   0.02440  -0.0725  0.0668  0.2500  -4.7072   0.0000   0.2650
  13.500   1.8560   0.03323   0.02721  -0.0689  0.0613  0.2500  -4.8853   0.0000   0.2616
  14.000   1.8679   0.03645   0.03048  -0.0656  0.0563  0.2500  -5.0542   0.0000   0.2585
  14.500   1.8795   0.03989   0.03399  -0.0629  0.0526  0.2500  -5.2272   0.0000   0.2556
  15.000   1.8853   0.04406   0.03824  -0.0604  0.0487  0.2500  -5.3853   0.0000   0.2530
  15.500   1.8842   0.04913   0.04339  -0.0584  0.0446  0.2500  -5.5306   0.0000   0.2507
  16.000   1.8820   0.05461   0.04898  -0.0573  0.0417  0.2500  -5.6785   0.0000   0.2488
  16.500   1.8737   0.06105   0.05554  -0.0568  0.0391  0.2500  -5.8034   0.0000   0.2473
  17.000   1.8612   0.06826   0.06289  -0.0571  0.0370  0.2500  -5.9102   0.0000   0.2463
  17.500   1.8401   0.07678   0.07156  -0.0584  0.0350  0.2500  -5.9808   0.0000   0.2458
  18.000   1.8174   0.08576   0.08071  -0.0606  0.0335  0.2500  -6.0398   0.0000   0.2459
  18.500   1.7850   0.09620   0.09132  -0.0639  0.0319  0.2500  -6.0530   0.0000   0.2468
  19.000   1.7564   0.10630   0.10160  -0.0678  0.0307  0.2500  -6.0724   0.0000   0.2480
  19.500   1.7268   0.11669   0.11216  -0.0726  0.0296  0.2500  -6.0780   0.0000   0.2499
  20.000   1.6978   0.12715   0.12276  -0.0783  0.0283  0.2500  -6.0746   0.0000   0.2522
  20.500   1.6745   0.13681   0.13256  -0.0841  0.0271  0.2500  -6.0875   0.0000   0.2547
  21.000   1.6572   0.14572   0.14161  -0.0899  0.0261  0.2500  -6.1196   0.0000   0.2571
  21.500   1.6417   0.15438   0.15038  -0.0961  0.0249  0.2500  -6.1532   0.0000   0.2597
  22.000   1.6284   0.16276   0.15888  -0.1025  0.0238  0.2500  -6.1898   0.0000   0.2623
  22.500   1.6188   0.17054   0.16676  -0.1088  0.0228  0.2500  -6.2400   0.0000   0.2649
  23.000   1.6089   0.17839   0.17470  -0.1155  0.0218  0.2500  -6.2822   0.0000   0.2676
  23.500   1.6051   0.18526   0.18165  -0.1216  0.0208  0.2500  -6.3543   0.0000   0.2698
  24.000   1.6004   0.19227   0.18877  -0.1280  0.0198  0.2500  -6.4316   0.0000   0.2722
  24.500   1.5928   0.19977   0.19634  -0.1352  0.0186  0.2500  -6.4847   0.0000   0.2752
  25.000   1.5888   0.20665   0.20331  -0.1420  0.0177  0.2500  -6.5554   0.0000   0.2779


