xflr5 v6.47

 Calculated polar for: NACA24018_theta30_Ku4.5_Kl0.5_d0.28_delta9.02

 1 1 Reynolds number fixed          Mach number fixed         

 xtrf =   0.250 (top)        0.250 (bottom)
 Mach =   0.000     Re =     4.000 e 6     Ncrit =   5.000

  alpha     CL        CD       CDp       Cm    Top Xtr Bot Xtr   Cpmin    Chinge    XCp    
 ------- -------- --------- --------- -------- ------- ------- -------- --------- ---------
 -15.000  -0.3162   0.03382   0.02851  -0.1650  0.2500  0.0342  -4.1794   0.0000  -0.3223
 -14.500  -0.2434   0.03423   0.02890  -0.1691  0.2500  0.0360  -3.8312   0.0000  -0.5053
 -14.000  -0.1740   0.03471   0.02936  -0.1723  0.2500  0.0373  -3.5025   0.0000  -0.8192
 -13.500  -0.1023   0.03529   0.02993  -0.1759  0.2500  0.0397  -3.1785   0.0000  -1.5945
 -13.000  -0.0321   0.03592   0.03055  -0.1791  0.2500  0.0420  -2.8691   0.0000  -5.6903
 -12.500   0.0402   0.03664   0.03126  -0.1827  0.2500  0.0452  -2.5653   0.0000   5.0676
 -12.000   0.1101   0.03739   0.03201  -0.1857  0.2500  0.0481  -2.2995   0.0000   2.0276
 -11.500   0.1785   0.03817   0.03279  -0.1884  0.2500  0.0511  -2.0499   0.0000   1.3570
 -11.000   0.2482   0.03904   0.03365  -0.1913  0.2500  0.0556  -1.8067   0.0000   1.0545
 -10.500   0.3180   0.03996   0.03458  -0.1941  0.2500  0.0607  -1.5724   0.0000   0.8843
 -10.000   0.3876   0.04093   0.03556  -0.1969  0.2500  0.0670  -1.3539   0.0000   0.7756
  -9.500   0.4554   0.04190   0.03655  -0.1993  0.2500  0.0740  -1.1526   0.0000   0.7009
  -9.000   0.5226   0.04290   0.03756  -0.2016  0.2500  0.0823  -0.9840   0.0000   0.6457
  -8.500   0.5910   0.04398   0.03866  -0.2040  0.2500  0.0932  -1.0021   0.0000   0.6027
  -8.000   0.6593   0.04510   0.03981  -0.2064  0.2500  0.1069  -1.0197   0.0000   0.5686
  -7.500   0.7301   0.04637   0.04112  -0.2091  0.2500  0.1269  -1.0390   0.0000   0.5404
  -7.000   0.8012   0.04771   0.04252  -0.2119  0.2500  0.1550  -1.0783   0.0000   0.5170
  -6.500   0.8778   0.04933   0.04423  -0.2157  0.2500  0.1990  -1.1615   0.0000   0.4969
  -6.000   0.9562   0.05110   0.04610  -0.2196  0.2500  0.2500  -1.2504   0.0000   0.4798
  -5.500   1.0102   0.05191   0.04690  -0.2193  0.2500  0.2500  -1.3244   0.0000   0.4662
  -5.000   1.0628   0.05276   0.04774  -0.2188  0.2500  0.2500  -1.3987   0.0000   0.4541
  -4.500   1.1144   0.05361   0.04859  -0.2180  0.2500  0.2500  -1.4759   0.0000   0.4430
  -4.000   1.1657   0.05444   0.04942  -0.2172  0.2500  0.2500  -1.5539   0.0000   0.4329
  -3.500   1.2169   0.05525   0.05023  -0.2164  0.2494  0.2500  -1.6327   0.0000   0.4236
  -3.000   1.2676   0.05602   0.05097  -0.2155  0.2431  0.2500  -1.7157   0.0000   0.4150
  -2.500   1.3177   0.05678   0.05168  -0.2145  0.2339  0.2500  -1.8029   0.0000   0.4070
  -2.000   1.3676   0.05755   0.05244  -0.2134  0.2290  0.2500  -1.8937   0.0000   0.3995
  -1.500   1.4166   0.05832   0.05316  -0.2122  0.2191  0.2500  -1.9860   0.0000   0.3925
  -1.000   1.4653   0.05909   0.05391  -0.2110  0.2123  0.2500  -2.0793   0.0000   0.3859
  -0.500   1.5134   0.05988   0.05466  -0.2096  0.2046  0.2500  -2.1735   0.0000   0.3797
   0.000   1.5613   0.06068   0.05546  -0.2082  0.1994  0.2500  -2.2769   0.0000   0.3738
   0.500   1.6079   0.06151   0.05624  -0.2067  0.1902  0.2500  -2.3797   0.0000   0.3682
   1.000   1.6542   0.06233   0.05706  -0.2050  0.1854  0.2500  -2.4837   0.0000   0.3628
   1.500   1.6986   0.06318   0.05787  -0.2031  0.1766  0.2500  -2.5957   0.0000   0.3577
   2.000   1.7426   0.06405   0.05872  -0.2012  0.1696  0.2500  -2.7086   0.0000   0.3527
   2.500   1.7856   0.06496   0.05961  -0.1991  0.1624  0.2500  -2.8257   0.0000   0.3479
   3.000   1.8265   0.06593   0.06054  -0.1967  0.1529  0.2500  -2.9483   0.0000   0.3433
   3.500   1.8663   0.06702   0.06163  -0.1942  0.1464  0.2500  -3.0744   0.0000   0.3388
   4.000   1.9027   0.06833   0.06291  -0.1912  0.1375  0.2500  -3.2059   0.0000   0.3343
   4.500   1.9385   0.06964   0.06419  -0.1882  0.1277  0.2500  -3.3468   0.0000   0.3300
   5.000   1.9732   0.07099   0.06550  -0.1851  0.1177  0.2500  -3.4958   0.0000   0.3258
   5.500   2.0083   0.07233   0.06683  -0.1821  0.1113  0.2500  -3.6671   0.0000   0.3217
   6.000   2.0394   0.07390   0.06838  -0.1786  0.1021  0.2500  -3.8378   0.0000   0.3176
   6.500   2.0663   0.07589   0.07037  -0.1747  0.0944  0.2500  -4.0070   0.0000   0.3136
   7.000   2.0921   0.07789   0.07234  -0.1708  0.0849  0.2500  -4.1842   0.0000   0.3096
   7.500   2.1173   0.07991   0.07435  -0.1669  0.0776  0.2500  -4.3787   0.0000   0.3057
   8.000   2.1367   0.08245   0.07690  -0.1626  0.0709  0.2500  -4.5623   0.0000   0.3018
   8.500   2.1561   0.08490   0.07935  -0.1584  0.0637  0.2500  -4.7551   0.0000   0.2980
   9.000   2.1702   0.08790   0.08238  -0.1539  0.0577  0.2500  -4.9461   0.0000   0.2942
   9.500   2.1827   0.09106   0.08556  -0.1495  0.0522  0.2500  -5.1375   0.0000   0.2906
  10.000   2.1936   0.09438   0.08892  -0.1454  0.0472  0.2500  -5.3375   0.0000   0.2871
  10.500   2.2007   0.09811   0.09270  -0.1414  0.0428  0.2500  -5.5273   0.0000   0.2837
  11.000   2.2052   0.10215   0.09680  -0.1377  0.0390  0.2500  -5.7095   0.0000   0.2805
  11.500   2.2080   0.10642   0.10114  -0.1346  0.0360  0.2500  -5.8864   0.0000   0.2775
  12.000   2.2114   0.11065   0.10546  -0.1320  0.0337  0.2500  -6.0653   0.0000   0.2748
  12.500   2.2089   0.11555   0.11045  -0.1300  0.0312  0.2500  -6.2226   0.0000   0.2723
  13.000   2.2089   0.12018   0.11518  -0.1286  0.0294  0.2500  -6.3875   0.0000   0.2701
  13.500   2.2032   0.12547   0.12057  -0.1280  0.0275  0.2500  -6.5296   0.0000   0.2683
  14.000   2.1977   0.13073   0.12594  -0.1281  0.0261  0.2500  -6.6697   0.0000   0.2668
  14.500   2.1874   0.13652   0.13185  -0.1290  0.0245  0.2500  -6.7873   0.0000   0.2657
  15.000   2.1800   0.14197   0.13742  -0.1305  0.0234  0.2500  -6.9134   0.0000   0.2647
  15.500   2.1657   0.14827   0.14384  -0.1330  0.0221  0.2500  -7.0132   0.0000   0.2643
  16.000   2.1517   0.15457   0.15028  -0.1362  0.0210  0.2500  -7.1111   0.0000   0.2643
  16.500   2.1347   0.16126   0.15710  -0.1403  0.0199  0.2500  -7.1900   0.0000   0.2646
  17.000   2.1149   0.16832   0.16431  -0.1453  0.0188  0.2500  -7.2485   0.0000   0.2654
  17.500   2.1009   0.17459   0.17070  -0.1499  0.0180  0.2500  -7.3311   0.0000   0.2660
  18.000   2.0800   0.18180   0.17805  -0.1560  0.0171  0.2500  -7.3712   0.0000   0.2673
  18.500   2.0634   0.18840   0.18476  -0.1617  0.0162  0.2500  -7.4280   0.0000   0.2685
  19.000   2.0490   0.19466   0.19115  -0.1675  0.0154  0.2500  -7.4939   0.0000   0.2696
  19.500   2.0322   0.20128   0.19787  -0.1740  0.0146  0.2500  -7.5471   0.0000   0.2711
  20.000   2.0198   0.20722   0.20393  -0.1800  0.0139  0.2500  -7.6213   0.0000   0.2723
  20.500   2.0093   0.21280   0.20961  -0.1858  0.0133  0.2500  -7.7084   0.0000   0.2733
  21.000   1.9968   0.21863   0.21553  -0.1923  0.0126  0.2500  -7.7782   0.0000   0.2746
  21.500   1.9849   0.22429   0.22129  -0.1987  0.0120  0.2500  -7.8468   0.0000   0.2760
  22.000   1.9751   0.22955   0.22665  -0.2049  0.0116  0.2500  -7.9265   0.0000   0.2772
  22.500   1.9652   0.23477   0.23196  -0.2113  0.0111  0.2500  -8.0006   0.0000   0.2784
  23.000   1.9591   0.23927   0.23653  -0.2169  0.0105  0.2500  -8.1013   0.0000   0.2791
  23.500   1.9499   0.24421   0.24155  -0.2232  0.0101  0.2500  -8.1736   0.0000   0.2802
  24.000   1.9407   0.24908   0.24652  -0.2297  0.0096  0.2500  -8.2413   0.0000   0.2815
  24.500   1.9316   0.25388   0.25140  -0.2363  0.0091  0.2500  -8.3050   0.0000   0.2827
  25.000   1.9253   0.25809   0.25567  -0.2422  0.0086  0.2500  -8.3912   0.0000   0.2835


