xflr5 v6.47

 Calculated polar for: NACA24018_theta30_Ku4.5_Kl0.5_d0.24_delta7.31

 1 1 Reynolds number fixed          Mach number fixed         

 xtrf =   0.250 (top)        0.250 (bottom)
 Mach =   0.000     Re =     0.800 e 6     Ncrit =   5.000

  alpha     CL        CD       CDp       Cm    Top Xtr Bot Xtr   Cpmin    Chinge    XCp    
 ------- -------- --------- --------- -------- ------- ------- -------- --------- ---------
 -15.000  -0.6756   0.03347   0.02668  -0.1111  0.2500  0.0380  -5.2867   0.0000   0.0592
 -14.500  -0.6228   0.03230   0.02543  -0.1136  0.2500  0.0395  -4.9598   0.0000   0.0411
 -14.000  -0.5638   0.03138   0.02442  -0.1167  0.2500  0.0410  -4.6320   0.0000   0.0158
 -13.500  -0.5000   0.03069   0.02368  -0.1203  0.2500  0.0430  -4.2967   0.0000  -0.0190
 -13.000  -0.4345   0.03024   0.02314  -0.1237  0.2500  0.0451  -3.9654   0.0000  -0.0649
 -12.500  -0.3652   0.02992   0.02278  -0.1277  0.2500  0.0475  -3.6319   0.0000  -0.1328
 -12.000  -0.2957   0.02978   0.02258  -0.1314  0.2500  0.0503  -3.3159   0.0000  -0.2320
 -11.500  -0.2252   0.02976   0.02253  -0.1351  0.2500  0.0538  -3.0116   0.0000  -0.3955
 -11.000  -0.1531   0.02986   0.02259  -0.1390  0.2500  0.0575  -2.7171   0.0000  -0.7197
 -10.500  -0.0813   0.03006   0.02277  -0.1427  0.2500  0.0622  -2.4426   0.0000  -1.6104
 -10.000  -0.0092   0.03037   0.02305  -0.1463  0.2500  0.0673  -2.1766   0.0000  -16.5884
  -9.500   0.0637   0.03076   0.02343  -0.1500  0.2500  0.0739  -1.9226   0.0000   2.7169
  -9.000   0.1367   0.03124   0.02391  -0.1537  0.2500  0.0824  -1.6851   0.0000   1.4209
  -8.500   0.2092   0.03178   0.02445  -0.1571  0.2500  0.0926  -1.4668   0.0000   1.0283
  -8.000   0.2832   0.03242   0.02511  -0.1608  0.2500  0.1059  -1.2558   0.0000   0.8355
  -7.500   0.3583   0.03316   0.02588  -0.1647  0.2500  0.1250  -1.0534   0.0000   0.7216
  -7.000   0.4376   0.03405   0.02686  -0.1693  0.2500  0.1562  -0.8703   0.0000   0.6451
  -6.500   0.5320   0.03539   0.02837  -0.1767  0.2500  0.2263  -0.8940   0.0000   0.5875
  -6.000   0.6030   0.03630   0.02930  -0.1796  0.2500  0.2500  -0.9681   0.0000   0.5513
  -5.500   0.6620   0.03695   0.02990  -0.1802  0.2500  0.2500  -1.0347   0.0000   0.5242
  -5.000   0.7204   0.03761   0.03052  -0.1807  0.2500  0.2500  -1.1025   0.0000   0.5015
  -4.500   0.7780   0.03828   0.03116  -0.1810  0.2500  0.2500  -1.1752   0.0000   0.4822
  -4.000   0.8348   0.03895   0.03182  -0.1811  0.2500  0.2500  -1.2492   0.0000   0.4656
  -3.500   0.8910   0.03964   0.03250  -0.1812  0.2500  0.2500  -1.3237   0.0000   0.4511
  -3.000   0.9467   0.04035   0.03320  -0.1812  0.2500  0.2500  -1.4002   0.0000   0.4382
  -2.500   1.0017   0.04106   0.03392  -0.1810  0.2500  0.2500  -1.4790   0.0000   0.4267
  -2.000   1.0560   0.04179   0.03467  -0.1807  0.2500  0.2500  -1.5588   0.0000   0.4164
  -1.500   1.1097   0.04253   0.03544  -0.1803  0.2500  0.2500  -1.6446   0.0000   0.4070
  -1.000   1.1626   0.04330   0.03624  -0.1798  0.2500  0.2500  -1.7319   0.0000   0.3984
  -0.500   1.2146   0.04412   0.03709  -0.1791  0.2500  0.2500  -1.8197   0.0000   0.3905
   0.000   1.2656   0.04497   0.03799  -0.1783  0.2500  0.2500  -1.9110   0.0000   0.3831
   0.500   1.3159   0.04584   0.03892  -0.1773  0.2500  0.2500  -2.0043   0.0000   0.3763
   1.000   1.3654   0.04673   0.03988  -0.1762  0.2500  0.2500  -2.1003   0.0000   0.3699
   1.500   1.4134   0.04767   0.04086  -0.1749  0.2467  0.2500  -2.2008   0.0000   0.3638
   2.000   1.4605   0.04862   0.04185  -0.1736  0.2394  0.2500  -2.3054   0.0000   0.3581
   2.500   1.5055   0.04969   0.04291  -0.1719  0.2312  0.2500  -2.4087   0.0000   0.3526
   3.000   1.5505   0.05076   0.04402  -0.1702  0.2237  0.2500  -2.5133   0.0000   0.3474
   3.500   1.5925   0.05200   0.04527  -0.1681  0.2168  0.2500  -2.6183   0.0000   0.3424
   4.000   1.6344   0.05328   0.04662  -0.1660  0.2105  0.2500  -2.7348   0.0000   0.3376
   4.500   1.6731   0.05472   0.04808  -0.1636  0.2025  0.2500  -2.8547   0.0000   0.3329
   5.000   1.7127   0.05610   0.04952  -0.1613  0.1955  0.2500  -2.9807   0.0000   0.3284
   5.500   1.7487   0.05772   0.05118  -0.1585  0.1880  0.2500  -3.1098   0.0000   0.3240
   6.000   1.7835   0.05947   0.05300  -0.1557  0.1808  0.2500  -3.2413   0.0000   0.3198
   6.500   1.8162   0.06135   0.05493  -0.1527  0.1736  0.2500  -3.3811   0.0000   0.3156
   7.000   1.8465   0.06343   0.05706  -0.1496  0.1661  0.2500  -3.5351   0.0000   0.3115
   7.500   1.8747   0.06566   0.05937  -0.1463  0.1585  0.2500  -3.6961   0.0000   0.3075
   8.000   1.8984   0.06826   0.06202  -0.1427  0.1505  0.2500  -3.8514   0.0000   0.3036
   8.500   1.9214   0.07096   0.06480  -0.1393  0.1424  0.2500  -4.0192   0.0000   0.2998
   9.000   1.9411   0.07401   0.06794  -0.1357  0.1353  0.2500  -4.1861   0.0000   0.2961
   9.500   1.9560   0.07752   0.07152  -0.1321  0.1282  0.2500  -4.3527   0.0000   0.2925
  10.000   1.9687   0.08131   0.07542  -0.1288  0.1209  0.2500  -4.5229   0.0000   0.2892
  10.500   1.9779   0.08554   0.07975  -0.1257  0.1130  0.2500  -4.6841   0.0000   0.2860
  11.000   1.9833   0.09025   0.08456  -0.1230  0.1061  0.2500  -4.8346   0.0000   0.2832
  11.500   1.9847   0.09545   0.08987  -0.1209  0.0997  0.2500  -4.9726   0.0000   0.2807
  12.000   1.9845   0.10088   0.09543  -0.1195  0.0932  0.2500  -5.1043   0.0000   0.2785
  12.500   1.9814   0.10672   0.10141  -0.1188  0.0870  0.2500  -5.2365   0.0000   0.2767
  13.000   1.9740   0.11314   0.10797  -0.1191  0.0813  0.2500  -5.3541   0.0000   0.2755
  13.500   1.9626   0.12014   0.11511  -0.1204  0.0760  0.2500  -5.4529   0.0000   0.2749
  14.000   1.9527   0.12703   0.12216  -0.1224  0.0714  0.2500  -5.5519   0.0000   0.2746
  14.500   1.9390   0.13444   0.12974  -0.1255  0.0674  0.2500  -5.6309   0.0000   0.2748
  15.000   1.9223   0.14233   0.13778  -0.1296  0.0635  0.2500  -5.6909   0.0000   0.2757
  15.500   1.9075   0.15001   0.14564  -0.1343  0.0599  0.2500  -5.7518   0.0000   0.2768
  16.000   1.8889   0.15826   0.15404  -0.1399  0.0565  0.2500  -5.7889   0.0000   0.2786
  16.500   1.8737   0.16603   0.16195  -0.1456  0.0528  0.2500  -5.8347   0.0000   0.2803
  17.000   1.8579   0.17392   0.16998  -0.1520  0.0496  0.2500  -5.8699   0.0000   0.2824
  17.500   1.8429   0.18169   0.17787  -0.1586  0.0465  0.2500  -5.9032   0.0000   0.2846
  18.000   1.8342   0.18846   0.18477  -0.1646  0.0436  0.2500  -5.9722   0.0000   0.2863
  18.500   1.8241   0.19541   0.19183  -0.1711  0.0409  0.2500  -6.0282   0.0000   0.2883
  19.000   1.8155   0.20211   0.19863  -0.1776  0.0383  0.2500  -6.0918   0.0000   0.2903
  19.500   1.8094   0.20838   0.20501  -0.1839  0.0360  0.2500  -6.1654   0.0000   0.2920
  20.000   1.8019   0.21483   0.21154  -0.1906  0.0339  0.2500  -6.2255   0.0000   0.2940
  20.500   1.7989   0.22046   0.21729  -0.1966  0.0320  0.2500  -6.3109   0.0000   0.2954
  21.000   1.7934   0.22648   0.22339  -0.2033  0.0301  0.2500  -6.3745   0.0000   0.2973
  21.500   1.7929   0.23152   0.22853  -0.2090  0.0284  0.2500  -6.4713   0.0000   0.2983
  22.000   1.7874   0.23737   0.23445  -0.2159  0.0266  0.2500  -6.5272   0.0000   0.3002
  22.500   1.7861   0.24240   0.23958  -0.2220  0.0249  0.2500  -6.6105   0.0000   0.3014
  23.000   1.7823   0.24777   0.24502  -0.2286  0.0235  0.2500  -6.6717   0.0000   0.3031
  23.500   1.7830   0.25222   0.24957  -0.2343  0.0222  0.2500  -6.7665   0.0000   0.3038
  24.000   1.7797   0.25736   0.25478  -0.2409  0.0210  0.2500  -6.8354   0.0000   0.3054
  24.500   1.7799   0.26171   0.25921  -0.2467  0.0199  0.2500  -6.9349   0.0000   0.3062
  25.000   1.7780   0.26635   0.26393  -0.2531  0.0187  0.2500  -7.0127   0.0000   0.3074


