xflr5 v6.47

 Calculated polar for: NACA24018_theta30_Ku4.5_Kl0.5_d0.28_delta9.02

 1 1 Reynolds number fixed          Mach number fixed         

 xtrf =   0.250 (top)        0.250 (bottom)
 Mach =   0.000     Re =     0.200 e 6     Ncrit =   5.000

  alpha     CL        CD       CDp       Cm    Top Xtr Bot Xtr   Cpmin    Chinge    XCp    
 ------- -------- --------- --------- -------- ------- ------- -------- --------- ---------
 -15.000  -0.5707   0.04907   0.04105  -0.1021  0.2500  0.0561  -4.5536   0.0000   0.0436
 -14.500  -0.5304   0.04685   0.03879  -0.1042  0.2500  0.0579  -4.3089   0.0000   0.0259
 -14.000  -0.4797   0.04456   0.03624  -0.1079  0.2500  0.0606  -4.0567   0.0000  -0.0034
 -13.500  -0.4242   0.04300   0.03455  -0.1111  0.2500  0.0632  -3.7860   0.0000  -0.0418
 -13.000  -0.3638   0.04184   0.03319  -0.1147  0.2500  0.0669  -3.5180   0.0000  -0.0974
 -12.500  -0.3029   0.04106   0.03236  -0.1177  0.2500  0.0703  -3.2458   0.0000  -0.1744
 -12.000  -0.2397   0.04052   0.03168  -0.1208  0.2500  0.0750  -2.9776   0.0000  -0.2953
 -11.500  -0.1745   0.04022   0.03129  -0.1240  0.2500  0.0803  -2.7068   0.0000  -0.5125
 -11.000  -0.1070   0.04011   0.03114  -0.1274  0.2500  0.0865  -2.4422   0.0000  -1.0170
 -10.500  -0.0378   0.04018   0.03117  -0.1309  0.2500  0.0941  -2.1959   0.0000  -3.4080
 -10.000   0.0338   0.04043   0.03139  -0.1347  0.2500  0.1037  -1.9580   0.0000   4.4306
  -9.500   0.1073   0.04089   0.03182  -0.1388  0.2500  0.1161  -1.7234   0.0000   1.5992
  -9.000   0.1868   0.04162   0.03258  -0.1439  0.2500  0.1332  -1.4901   0.0000   1.0482
  -8.500   0.2712   0.04263   0.03364  -0.1498  0.2500  0.1605  -1.2625   0.0000   0.8187
  -8.000   0.3723   0.04426   0.03543  -0.1588  0.2500  0.2201  -1.0270   0.0000   0.6861
  -7.500   0.4504   0.04556   0.03670  -0.1631  0.2500  0.2500  -0.8466   0.0000   0.6183
  -7.000   0.5098   0.04644   0.03743  -0.1639  0.2500  0.2500  -0.8669   0.0000   0.5755
  -6.500   0.5680   0.04732   0.03820  -0.1646  0.2500  0.2500  -0.9308   0.0000   0.5419
  -6.000   0.6250   0.04823   0.03901  -0.1650  0.2500  0.2500  -0.9951   0.0000   0.5146
  -5.500   0.6810   0.04914   0.03986  -0.1652  0.2500  0.2500  -1.0599   0.0000   0.4919
  -5.000   0.7359   0.05006   0.04073  -0.1652  0.2500  0.2500  -1.1274   0.0000   0.4728
  -4.500   0.7900   0.05100   0.04163  -0.1651  0.2500  0.2500  -1.1965   0.0000   0.4562
  -4.000   0.8431   0.05196   0.04257  -0.1649  0.2500  0.2500  -1.2673   0.0000   0.4418
  -3.500   0.8954   0.05293   0.04354  -0.1645  0.2500  0.2500  -1.3398   0.0000   0.4291
  -3.000   0.9467   0.05393   0.04455  -0.1639  0.2500  0.2500  -1.4143   0.0000   0.4177
  -2.500   0.9971   0.05494   0.04559  -0.1632  0.2500  0.2500  -1.4887   0.0000   0.4075
  -2.000   1.0467   0.05598   0.04667  -0.1624  0.2500  0.2500  -1.5664   0.0000   0.3981
  -1.500   1.0954   0.05705   0.04779  -0.1614  0.2500  0.2500  -1.6466   0.0000   0.3896
  -1.000   1.1432   0.05817   0.04897  -0.1604  0.2500  0.2500  -1.7283   0.0000   0.3818
  -0.500   1.1899   0.05933   0.05021  -0.1592  0.2500  0.2500  -1.8130   0.0000   0.3745
   0.000   1.2358   0.06052   0.05150  -0.1579  0.2500  0.2500  -1.8985   0.0000   0.3677
   0.500   1.2809   0.06175   0.05283  -0.1564  0.2500  0.2500  -1.9839   0.0000   0.3614
   1.000   1.3250   0.06300   0.05420  -0.1549  0.2500  0.2500  -2.0753   0.0000   0.3554
   1.500   1.3684   0.06428   0.05560  -0.1533  0.2500  0.2500  -2.1687   0.0000   0.3497
   2.000   1.4108   0.06558   0.05704  -0.1516  0.2500  0.2500  -2.2619   0.0000   0.3443
   2.500   1.4522   0.06693   0.05853  -0.1498  0.2500  0.2500  -2.3604   0.0000   0.3392
   3.000   1.4929   0.06829   0.06003  -0.1479  0.2500  0.2500  -2.4619   0.0000   0.3343
   3.500   1.5336   0.06960   0.06150  -0.1461  0.2500  0.2500  -2.5667   0.0000   0.3297
   4.000   1.5745   0.07082   0.06288  -0.1443  0.2500  0.2500  -2.6767   0.0000   0.3252
   4.500   1.6164   0.07188   0.06408  -0.1426  0.2499  0.2500  -2.7959   0.0000   0.3209
   5.000   1.6481   0.07392   0.06634  -0.1400  0.2418  0.2500  -2.9067   0.0000   0.3167
   6.000   1.7028   0.07863   0.07134  -0.1344  0.2267  0.2500  -3.1393   0.0000   0.3087
   6.500   1.7256   0.08133   0.07412  -0.1315  0.2198  0.2500  -3.2597   0.0000   0.3049
   7.000   1.7486   0.08411   0.07715  -0.1288  0.2121  0.2500  -3.3901   0.0000   0.3012
   7.500   1.7668   0.08725   0.08038  -0.1260  0.2052  0.2500  -3.5229   0.0000   0.2977
   8.000   1.7849   0.09053   0.08392  -0.1235  0.1976  0.2500  -3.6572   0.0000   0.2944
   8.500   1.7980   0.09424   0.08773  -0.1212  0.1908  0.2500  -3.7859   0.0000   0.2913
   9.000   1.8112   0.09810   0.09187  -0.1192  0.1832  0.2500  -3.9225   0.0000   0.2884
   9.500   1.8198   0.10239   0.09628  -0.1176  0.1765  0.2500  -4.0564   0.0000   0.2858
  10.000   1.8278   0.10691   0.10107  -0.1165  0.1690  0.2500  -4.1894   0.0000   0.2835
  10.500   1.8322   0.11178   0.10611  -0.1159  0.1623  0.2500  -4.3151   0.0000   0.2816
  11.000   1.8344   0.11701   0.11157  -0.1161  0.1549  0.2500  -4.4360   0.0000   0.2800
  11.500   1.8343   0.12249   0.11726  -0.1168  0.1479  0.2500  -4.5511   0.0000   0.2788
  12.000   1.8308   0.12843   0.12337  -0.1184  0.1410  0.2500  -4.6563   0.0000   0.2781
  12.500   1.8267   0.13452   0.12971  -0.1208  0.1341  0.2500  -4.7553   0.0000   0.2778
  13.000   1.8205   0.14084   0.13616  -0.1238  0.1278  0.2500  -4.8446   0.0000   0.2779
  13.500   1.8119   0.14759   0.14316  -0.1278  0.1209  0.2500  -4.9226   0.0000   0.2786
  14.000   1.8026   0.15440   0.15017  -0.1324  0.1144  0.2500  -4.9969   0.0000   0.2796
  14.500   1.7928   0.16128   0.15715  -0.1376  0.1080  0.2500  -5.0647   0.0000   0.2810
  15.000   1.7803   0.16864   0.16475  -0.1437  0.1014  0.2500  -5.1109   0.0000   0.2829
  15.500   1.7697   0.17565   0.17193  -0.1499  0.0953  0.2500  -5.1609   0.0000   0.2849
  16.000   1.7621   0.18215   0.17850  -0.1558  0.0895  0.2500  -5.2220   0.0000   0.2866
  16.500   1.7507   0.18934   0.18588  -0.1629  0.0834  0.2500  -5.2531   0.0000   0.2891
  17.000   1.7423   0.19598   0.19268  -0.1696  0.0779  0.2500  -5.2949   0.0000   0.2913
  17.500   1.7382   0.20186   0.19863  -0.1757  0.0729  0.2500  -5.3574   0.0000   0.2929
  18.000   1.7322   0.20803   0.20492  -0.1824  0.0679  0.2500  -5.4037   0.0000   0.2949
  18.500   1.7248   0.21443   0.21147  -0.1896  0.0632  0.2500  -5.4360   0.0000   0.2973
  19.000   1.7232   0.21970   0.21681  -0.1956  0.0591  0.2500  -5.5088   0.0000   0.2987
  19.500   1.7215   0.22494   0.22213  -0.2018  0.0552  0.2500  -5.5780   0.0000   0.3002
  20.000   1.7138   0.23128   0.22863  -0.2096  0.0513  0.2500  -5.5911   0.0000   0.3029
  20.500   1.7156   0.23568   0.23308  -0.2151  0.0481  0.2500  -5.6789   0.0000   0.3037
  21.000   1.7116   0.24117   0.23869  -0.2221  0.0449  0.2500  -5.7115   0.0000   0.3057
  21.500   1.7032   0.24752   0.24521  -0.2304  0.0417  0.2500  -5.6981   0.0000   0.3088
  22.000   1.7129   0.24998   0.24765  -0.2338  0.0396  0.2500  -5.8680   0.0000   0.3077


