xflr5 v6.47

 Calculated polar for: NACA24018_theta30_Ku4.5_Kl0.5_d0.07_delta1.57

 1 1 Reynolds number fixed          Mach number fixed         

 xtrf =   0.250 (top)        0.250 (bottom)
 Mach =   0.000     Re =     2.000 e 6     Ncrit =   5.000

  alpha     CL        CD       CDp       Cm    Top Xtr Bot Xtr   Cpmin    Chinge    XCp    
 ------- -------- --------- --------- -------- ------- ------- -------- --------- ---------
 -15.000  -0.9096   0.02097   0.01407  -0.1186  0.2500  0.0249  -6.3870   0.0000   0.0946
 -14.500  -0.8797   0.01991   0.01295  -0.1160  0.2500  0.0254  -6.1063   0.0000   0.0938
 -14.000  -0.8510   0.01888   0.01187  -0.1131  0.2500  0.0261  -5.8344   0.0000   0.0936
 -13.500  -0.8221   0.01796   0.01091  -0.1099  0.2500  0.0270  -5.5652   0.0000   0.0936
 -13.000  -0.7924   0.01715   0.01007  -0.1065  0.2500  0.0280  -5.2963   0.0000   0.0936
 -12.500  -0.7618   0.01645   0.00933  -0.1030  0.2500  0.0289  -5.0290   0.0000   0.0935
 -12.000  -0.7313   0.01582   0.00866  -0.0992  0.2500  0.0296  -4.7744   0.0000   0.0936
 -11.500  -0.7031   0.01520   0.00802  -0.0949  0.2500  0.0309  -4.5340   0.0000   0.0950
 -11.000  -0.6761   0.01468   0.00747  -0.0901  0.2500  0.0321  -4.3071   0.0000   0.0973
 -10.500  -0.6540   0.01424   0.00700  -0.0841  0.2500  0.0331  -4.1001   0.0000   0.1027
 -10.000  -0.6273   0.01382   0.00655  -0.0789  0.2500  0.0341  -3.8846   0.0000   0.1061
  -9.500  -0.5905   0.01334   0.00607  -0.0756  0.2500  0.0361  -3.6466   0.0000   0.1042
  -9.000  -0.5481   0.01294   0.00564  -0.0733  0.2500  0.0380  -3.3995   0.0000   0.0988
  -8.500  -0.5030   0.01255   0.00524  -0.0714  0.2500  0.0401  -3.1521   0.0000   0.0906
  -8.000  -0.4556   0.01219   0.00488  -0.0699  0.2500  0.0426  -2.9054   0.0000   0.0790
  -7.500  -0.4065   0.01188   0.00457  -0.0687  0.2500  0.0454  -2.6619   0.0000   0.0633
  -7.000  -0.3563   0.01159   0.00428  -0.0676  0.2500  0.0486  -2.4322   0.0000   0.0419
  -6.500  -0.3047   0.01134   0.00403  -0.0668  0.2500  0.0524  -2.2083   0.0000   0.0116
  -6.000  -0.2518   0.01112   0.00381  -0.0662  0.2500  0.0562  -1.9967   0.0000  -0.0334
  -5.500  -0.1980   0.01090   0.00361  -0.0657  0.2500  0.0618  -1.7926   0.0000  -0.1050
  -5.000  -0.1433   0.01070   0.00345  -0.0655  0.2500  0.0686  -1.5999   0.0000  -0.2347
  -4.500  -0.0877   0.01053   0.00330  -0.0654  0.2500  0.0766  -1.4159   0.0000  -0.5338
  -4.000  -0.0314   0.01037   0.00319  -0.0654  0.2500  0.0880  -1.2370   0.0000  -1.9240
  -3.500   0.0256   0.01023   0.00309  -0.0656  0.2500  0.1015  -1.0727   0.0000   2.9000
  -3.000   0.0835   0.01009   0.00302  -0.0659  0.2500  0.1213  -0.9180   0.0000   1.0603
  -2.500   0.1425   0.00993   0.00297  -0.0665  0.2500  0.1513  -0.7954   0.0000   0.7253
  -2.000   0.2057   0.00965   0.00291  -0.0682  0.2500  0.2215  -0.8598   0.0000   0.5846
  -1.500   0.2659   0.00958   0.00292  -0.0690  0.2500  0.2500  -0.9256   0.0000   0.5097
  -1.000   0.3232   0.00965   0.00297  -0.0691  0.2500  0.2500  -0.9905   0.0000   0.4621
  -0.500   0.3803   0.00972   0.00303  -0.0691  0.2500  0.2500  -1.0608   0.0000   0.4288
   0.000   0.4372   0.00980   0.00311  -0.0691  0.2500  0.2500  -1.1336   0.0000   0.4042
   0.500   0.4940   0.00989   0.00320  -0.0691  0.2500  0.2500  -1.2073   0.0000   0.3851
   1.000   0.5504   0.01000   0.00332  -0.0691  0.2500  0.2500  -1.2816   0.0000   0.3699
   1.500   0.6067   0.01011   0.00344  -0.0690  0.2500  0.2500  -1.3596   0.0000   0.3575
   2.000   0.6626   0.01023   0.00358  -0.0689  0.2500  0.2500  -1.4391   0.0000   0.3470
   2.500   0.7173   0.01041   0.00376  -0.0686  0.2465  0.2500  -1.5209   0.0000   0.3381
   3.000   0.7709   0.01061   0.00396  -0.0681  0.2400  0.2500  -1.6046   0.0000   0.3301
   3.500   0.8233   0.01087   0.00419  -0.0674  0.2321  0.2500  -1.6920   0.0000   0.3231
   4.000   0.8759   0.01111   0.00443  -0.0667  0.2259  0.2500  -1.7844   0.0000   0.3168
   4.500   0.9273   0.01140   0.00471  -0.0659  0.2185  0.2500  -1.8784   0.0000   0.3111
   5.000   0.9791   0.01166   0.00499  -0.0652  0.2135  0.2500  -1.9739   0.0000   0.3060
   5.500   1.0293   0.01200   0.00532  -0.0642  0.2060  0.2500  -2.0705   0.0000   0.3011
   6.000   1.0796   0.01232   0.00566  -0.0632  0.2002  0.2500  -2.1718   0.0000   0.2967
   6.500   1.1269   0.01273   0.00606  -0.0618  0.1924  0.2500  -2.2741   0.0000   0.2923
   7.000   1.1746   0.01312   0.00647  -0.0605  0.1866  0.2500  -2.3856   0.0000   0.2883
   7.500   1.2203   0.01360   0.00695  -0.0589  0.1792  0.2500  -2.4966   0.0000   0.2843
   8.000   1.2665   0.01406   0.00744  -0.0575  0.1729  0.2500  -2.6189   0.0000   0.2807
   8.500   1.3087   0.01465   0.00803  -0.0554  0.1656  0.2500  -2.7401   0.0000   0.2769
   9.000   1.3521   0.01521   0.00863  -0.0536  0.1596  0.2500  -2.8672   0.0000   0.2734
   9.500   1.3918   0.01592   0.00935  -0.0514  0.1523  0.2500  -3.0010   0.0000   0.2699
  10.000   1.4300   0.01670   0.01015  -0.0490  0.1446  0.2500  -3.1430   0.0000   0.2664
  10.500   1.4671   0.01756   0.01103  -0.0465  0.1376  0.2500  -3.2894   0.0000   0.2630
  11.000   1.5000   0.01862   0.01211  -0.0437  0.1295  0.2500  -3.4386   0.0000   0.2596
  11.500   1.5308   0.01983   0.01333  -0.0408  0.1214  0.2500  -3.5979   0.0000   0.2562
  12.000   1.5620   0.02109   0.01464  -0.0381  0.1151  0.2500  -3.7696   0.0000   0.2530
  12.500   1.5874   0.02271   0.01628  -0.0351  0.1072  0.2500  -3.9369   0.0000   0.2498
  13.000   1.6097   0.02461   0.01820  -0.0321  0.0995  0.2500  -4.1038   0.0000   0.2466
  13.500   1.6323   0.02662   0.02028  -0.0295  0.0933  0.2500  -4.2729   0.0000   0.2437
  14.000   1.6494   0.02912   0.02281  -0.0268  0.0869  0.2500  -4.4387   0.0000   0.2408
  14.500   1.6621   0.03211   0.02586  -0.0244  0.0805  0.2500  -4.5998   0.0000   0.2381
  15.000   1.6739   0.03539   0.02922  -0.0225  0.0749  0.2500  -4.7630   0.0000   0.2357
  15.500   1.6793   0.03942   0.03333  -0.0209  0.0696  0.2500  -4.9072   0.0000   0.2335
  16.000   1.6820   0.04400   0.03800  -0.0199  0.0651  0.2500  -5.0424   0.0000   0.2317
  16.500   1.6803   0.04928   0.04339  -0.0196  0.0611  0.2500  -5.1627   0.0000   0.2302
  17.000   1.6703   0.05572   0.04995  -0.0200  0.0570  0.2500  -5.2536   0.0000   0.2292
  17.500   1.6584   0.06272   0.05709  -0.0211  0.0540  0.2500  -5.3388   0.0000   0.2285
  18.000   1.6393   0.07084   0.06536  -0.0230  0.0513  0.2500  -5.3995   0.0000   0.2284
  18.500   1.6106   0.08039   0.07508  -0.0259  0.0487  0.2500  -5.4191   0.0000   0.2290
  19.000   1.5844   0.08997   0.08484  -0.0294  0.0468  0.2500  -5.4409   0.0000   0.2300
  19.500   1.5498   0.10082   0.09587  -0.0340  0.0445  0.2500  -5.4210   0.0000   0.2318
  20.000   1.5176   0.11159   0.10680  -0.0392  0.0422  0.2500  -5.4007   0.0000   0.2342
  20.500   1.4925   0.12152   0.11688  -0.0445  0.0403  0.2500  -5.4067   0.0000   0.2367
  21.000   1.4667   0.13173   0.12722  -0.0506  0.0381  0.2500  -5.3994   0.0000   0.2398
  21.500   1.4527   0.14027   0.13588  -0.0562  0.0363  0.2500  -5.4391   0.0000   0.2424
  22.000   1.4408   0.14855   0.14427  -0.0620  0.0344  0.2500  -5.4823   0.0000   0.2451
  22.500   1.4250   0.15754   0.15336  -0.0686  0.0324  0.2500  -5.4964   0.0000   0.2487
  23.000   1.4195   0.16495   0.16087  -0.0745  0.0308  0.2500  -5.5590   0.0000   0.2514
  23.500   1.4112   0.17280   0.16881  -0.0809  0.0289  0.2500  -5.5998   0.0000   0.2546
  24.000   1.4091   0.17963   0.17572  -0.0868  0.0275  0.2500  -5.6727   0.0000   0.2572
  24.500   1.4059   0.18667   0.18285  -0.0931  0.0260  0.2500  -5.7375   0.0000   0.2602
  25.000   1.4007   0.19408   0.19034  -0.0999  0.0245  0.2500  -5.7830   0.0000   0.2635


