xflr5 v6.47

 Calculated polar for: NACA24018_theta30_Ku4.5_Kl0.5_d0.14_delta3.44

 1 1 Reynolds number fixed          Mach number fixed         

 xtrf =   0.250 (top)        0.250 (bottom)
 Mach =   0.000     Re =     0.800 e 6     Ncrit =   5.000

  alpha     CL        CD       CDp       Cm    Top Xtr Bot Xtr   Cpmin    Chinge    XCp    
 ------- -------- --------- --------- -------- ------- ------- -------- --------- ---------
 -15.000  -0.7768   0.02925   0.02184  -0.1175  0.2500  0.0327  -5.7439   0.0000   0.0723
 -14.500  -0.7589   0.02758   0.02007  -0.1145  0.2500  0.0335  -5.5307   0.0000   0.0736
 -14.000  -0.7423   0.02600   0.01841  -0.1111  0.2500  0.0343  -5.3237   0.0000   0.0759
 -13.500  -0.7261   0.02457   0.01693  -0.1072  0.2500  0.0353  -5.1169   0.0000   0.0789
 -13.000  -0.7106   0.02336   0.01565  -0.1026  0.2500  0.0364  -4.9133   0.0000   0.0831
 -12.500  -0.7029   0.02228   0.01450  -0.0963  0.2500  0.0374  -4.7375   0.0000   0.0916
 -12.000  -0.6799   0.02120   0.01337  -0.0925  0.2500  0.0385  -4.5247   0.0000   0.0934
 -11.500  -0.6435   0.02025   0.01237  -0.0906  0.2500  0.0400  -4.2748   0.0000   0.0890
 -11.000  -0.5994   0.01947   0.01152  -0.0898  0.2500  0.0418  -4.0083   0.0000   0.0802
 -10.500  -0.5503   0.01871   0.01073  -0.0898  0.2500  0.0440  -3.7334   0.0000   0.0668
 -10.000  -0.4971   0.01811   0.01007  -0.0903  0.2500  0.0463  -3.4547   0.0000   0.0481
  -9.500  -0.4407   0.01754   0.00947  -0.0913  0.2500  0.0492  -3.1748   0.0000   0.0219
  -9.000  -0.3821   0.01708   0.00898  -0.0925  0.2500  0.0525  -2.9086   0.0000  -0.0142
  -8.500  -0.3217   0.01669   0.00857  -0.0940  0.2500  0.0563  -2.6466   0.0000  -0.0660
  -8.000  -0.2595   0.01635   0.00821  -0.0958  0.2500  0.0611  -2.3981   0.0000  -0.1456
  -7.500  -0.1964   0.01608   0.00793  -0.0976  0.2500  0.0667  -2.1576   0.0000  -0.2786
  -7.000  -0.1323   0.01586   0.00771  -0.0996  0.2500  0.0736  -1.9241   0.0000  -0.5447
  -6.500  -0.0674   0.01569   0.00755  -0.1016  0.2500  0.0820  -1.7069   0.0000  -1.3298
  -6.000  -0.0019   0.01556   0.00744  -0.1037  0.2500  0.0934  -1.4974   0.0000  -57.3304
  -5.500   0.0649   0.01546   0.00738  -0.1061  0.2500  0.1087  -1.3019   0.0000   1.9428
  -5.000   0.1330   0.01539   0.00738  -0.1087  0.2500  0.1315  -1.1205   0.0000   1.0913
  -4.500   0.2053   0.01532   0.00745  -0.1123  0.2500  0.1741  -0.9403   0.0000   0.8093
  -4.000   0.2853   0.01525   0.00761  -0.1174  0.2500  0.2500  -0.8255   0.0000   0.6685
  -3.500   0.3458   0.01542   0.00773  -0.1182  0.2500  0.2500  -0.8880   0.0000   0.5958
  -3.000   0.4058   0.01561   0.00787  -0.1189  0.2500  0.2500  -0.9539   0.0000   0.5449
  -2.500   0.4654   0.01582   0.00805  -0.1195  0.2500  0.2500  -1.0235   0.0000   0.5071
  -2.000   0.5246   0.01604   0.00825  -0.1200  0.2500  0.2500  -1.0936   0.0000   0.4779
  -1.500   0.5832   0.01629   0.00848  -0.1204  0.2500  0.2500  -1.1643   0.0000   0.4546
  -1.000   0.6414   0.01655   0.00874  -0.1208  0.2500  0.2500  -1.2380   0.0000   0.4354
  -0.500   0.6991   0.01683   0.00902  -0.1210  0.2500  0.2500  -1.3156   0.0000   0.4194
   0.000   0.7562   0.01712   0.00933  -0.1212  0.2500  0.2500  -1.3947   0.0000   0.4058
   0.500   0.8128   0.01744   0.00967  -0.1212  0.2500  0.2500  -1.4756   0.0000   0.3940
   1.000   0.8688   0.01778   0.01004  -0.1212  0.2500  0.2500  -1.5594   0.0000   0.3836
   1.500   0.9241   0.01814   0.01045  -0.1210  0.2500  0.2500  -1.6437   0.0000   0.3744
   2.000   0.9785   0.01854   0.01089  -0.1207  0.2500  0.2500  -1.7331   0.0000   0.3662
   2.500   1.0319   0.01897   0.01138  -0.1202  0.2500  0.2500  -1.8256   0.0000   0.3587
   3.000   1.0844   0.01944   0.01191  -0.1196  0.2500  0.2500  -1.9183   0.0000   0.3518
   3.500   1.1360   0.01995   0.01247  -0.1189  0.2456  0.2500  -2.0150   0.0000   0.3454
   4.000   1.1854   0.02056   0.01309  -0.1178  0.2382  0.2500  -2.1119   0.0000   0.3395
   4.500   1.2350   0.02117   0.01374  -0.1168  0.2315  0.2500  -2.2140   0.0000   0.3339
   5.000   1.2823   0.02189   0.01447  -0.1154  0.2242  0.2500  -2.3202   0.0000   0.3287
   5.500   1.3288   0.02261   0.01525  -0.1139  0.2177  0.2500  -2.4306   0.0000   0.3237
   6.000   1.3729   0.02347   0.01612  -0.1122  0.2103  0.2500  -2.5393   0.0000   0.3188
   6.500   1.4175   0.02430   0.01702  -0.1105  0.2040  0.2500  -2.6559   0.0000   0.3143
   7.000   1.4588   0.02531   0.01806  -0.1084  0.1972  0.2500  -2.7782   0.0000   0.3099
   7.500   1.4997   0.02634   0.01917  -0.1062  0.1904  0.2500  -2.9014   0.0000   0.3056
   8.000   1.5371   0.02757   0.02043  -0.1037  0.1826  0.2500  -3.0242   0.0000   0.3014
   8.500   1.5750   0.02879   0.02174  -0.1014  0.1769  0.2500  -3.1657   0.0000   0.2974
   9.000   1.6082   0.03031   0.02331  -0.0985  0.1695  0.2500  -3.3022   0.0000   0.2934
   9.500   1.6414   0.03188   0.02495  -0.0958  0.1619  0.2500  -3.4569   0.0000   0.2896
  10.000   1.6708   0.03372   0.02687  -0.0928  0.1552  0.2500  -3.6062   0.0000   0.2858
  10.500   1.6960   0.03592   0.02913  -0.0897  0.1473  0.2500  -3.7657   0.0000   0.2821
  11.000   1.7210   0.03824   0.03155  -0.0868  0.1401  0.2500  -3.9292   0.0000   0.2787
  11.500   1.7411   0.04105   0.03445  -0.0838  0.1335  0.2500  -4.0921   0.0000   0.2753
  12.000   1.7568   0.04434   0.03782  -0.0808  0.1257  0.2500  -4.2479   0.0000   0.2721
  12.500   1.7712   0.04790   0.04150  -0.0783  0.1187  0.2500  -4.4048   0.0000   0.2692
  13.000   1.7801   0.05216   0.04587  -0.0761  0.1125  0.2500  -4.5500   0.0000   0.2665
  13.500   1.7825   0.05724   0.05107  -0.0742  0.1057  0.2500  -4.6846   0.0000   0.2642
  14.000   1.7836   0.06268   0.05665  -0.0730  0.0996  0.2500  -4.8194   0.0000   0.2622
  14.500   1.7771   0.06922   0.06334  -0.0724  0.0942  0.2500  -4.9294   0.0000   0.2607
  15.000   1.7636   0.07682   0.07110  -0.0728  0.0888  0.2500  -5.0138   0.0000   0.2598
  15.500   1.7491   0.08480   0.07927  -0.0740  0.0840  0.2500  -5.0898   0.0000   0.2594
  16.000   1.7251   0.09421   0.08886  -0.0764  0.0796  0.2500  -5.1273   0.0000   0.2599
  16.500   1.7027   0.10358   0.09842  -0.0796  0.0751  0.2500  -5.1631   0.0000   0.2608
  17.000   1.6764   0.11365   0.10868  -0.0840  0.0712  0.2500  -5.1784   0.0000   0.2626
  17.500   1.6513   0.12366   0.11885  -0.0891  0.0672  0.2500  -5.1885   0.0000   0.2649
  18.000   1.6312   0.13308   0.12842  -0.0945  0.0637  0.2500  -5.2094   0.0000   0.2673
  18.500   1.6094   0.14282   0.13829  -0.1008  0.0600  0.2500  -5.2142   0.0000   0.2703
  19.000   1.5985   0.15099   0.14660  -0.1065  0.0565  0.2500  -5.2595   0.0000   0.2726
  19.500   1.5854   0.15950   0.15523  -0.1128  0.0531  0.2500  -5.2914   0.0000   0.2756
  20.000   1.5748   0.16767   0.16350  -0.1193  0.0497  0.2500  -5.3336   0.0000   0.2785
  20.500   1.5686   0.17514   0.17109  -0.1255  0.0468  0.2500  -5.3978   0.0000   0.2810
  21.000   1.5612   0.18285   0.17888  -0.1322  0.0440  0.2500  -5.4485   0.0000   0.2840
  21.500   1.5605   0.18941   0.18555  -0.1382  0.0413  0.2500  -5.5335   0.0000   0.2861
  22.000   1.5568   0.19647   0.19269  -0.1448  0.0388  0.2500  -5.5958   0.0000   0.2888
  22.500   1.5556   0.20307   0.19938  -0.1512  0.0363  0.2500  -5.6694   0.0000   0.2911
  23.000   1.5544   0.20966   0.20605  -0.1579  0.0342  0.2500  -5.7373   0.0000   0.2936
  23.500   1.5537   0.21607   0.21255  -0.1645  0.0321  0.2500  -5.8054   0.0000   0.2961
  24.000   1.5558   0.22191   0.21847  -0.1707  0.0303  0.2500  -5.8893   0.0000   0.2980
  24.500   1.5556   0.22817   0.22481  -0.1776  0.0285  0.2500  -5.9519   0.0000   0.3005
  25.000   1.5572   0.23402   0.23075  -0.1841  0.0269  0.2500  -6.0307   0.0000   0.3026


