xflr5 v6.47

 Calculated polar for: NACA24018_theta30_Ku4.5_Kl0.5_d0.28_delta9.02

 1 1 Reynolds number fixed          Mach number fixed         

 xtrf =   0.250 (top)        0.250 (bottom)
 Mach =   0.000     Re =     1.500 e 6     Ncrit =   5.000

  alpha     CL        CD       CDp       Cm    Top Xtr Bot Xtr   Cpmin    Chinge    XCp    
 ------- -------- --------- --------- -------- ------- ------- -------- --------- ---------
 -15.000  -0.4395   0.03555   0.02951  -0.1408  0.2500  0.0384  -4.5013   0.0000  -0.1071
 -14.500  -0.3690   0.03555   0.02946  -0.1450  0.2500  0.0402  -4.1540   0.0000  -0.1834
 -14.000  -0.2980   0.03571   0.02957  -0.1490  0.2500  0.0420  -3.8154   0.0000  -0.2962
 -13.500  -0.2261   0.03600   0.02984  -0.1530  0.2500  0.0447  -3.4829   0.0000  -0.4832
 -13.000  -0.1538   0.03641   0.03022  -0.1569  0.2500  0.0474  -3.1605   0.0000  -0.8466
 -12.500  -0.0820   0.03692   0.03069  -0.1606  0.2500  0.0502  -2.8496   0.0000  -1.8406
 -12.000  -0.0099   0.03752   0.03128  -0.1643  0.2500  0.0537  -2.5488   0.0000  -17.3933
 -11.500   0.0616   0.03821   0.03195  -0.1678  0.2500  0.0578  -2.2835   0.0000   3.1192
 -11.000   0.1333   0.03898   0.03271  -0.1712  0.2500  0.0626  -2.0290   0.0000   1.5962
 -10.500   0.2047   0.03982   0.03354  -0.1745  0.2500  0.0684  -1.7841   0.0000   1.1388
 -10.000   0.2758   0.04073   0.03445  -0.1776  0.2500  0.0755  -1.5489   0.0000   0.9182
  -9.500   0.3470   0.04170   0.03543  -0.1808  0.2500  0.0842  -1.3332   0.0000   0.7880
  -9.000   0.4186   0.04276   0.03650  -0.1839  0.2500  0.0953  -1.1291   0.0000   0.7017
  -8.500   0.4906   0.04390   0.03767  -0.1871  0.2500  0.1093  -0.9437   0.0000   0.6403
  -7.500   0.6404   0.04660   0.04048  -0.1943  0.2500  0.1607  -0.9363   0.0000   0.5578
  -7.000   0.7279   0.04853   0.04255  -0.2001  0.2500  0.2183  -1.0237   0.0000   0.5275
  -6.500   0.7997   0.04999   0.04405  -0.2031  0.2500  0.2500  -1.1012   0.0000   0.5051
  -6.000   0.8550   0.05086   0.04489  -0.2030  0.2500  0.2500  -1.1699   0.0000   0.4875
  -5.500   0.9098   0.05172   0.04573  -0.2029  0.2500  0.2500  -1.2407   0.0000   0.4721
  -5.000   0.9641   0.05258   0.04658  -0.2027  0.2500  0.2500  -1.3144   0.0000   0.4583
  -4.500   1.0179   0.05345   0.04743  -0.2023  0.2500  0.2500  -1.3899   0.0000   0.4460
  -4.000   1.0713   0.05431   0.04830  -0.2019  0.2500  0.2500  -1.4682   0.0000   0.4349
  -3.500   1.1242   0.05519   0.04918  -0.2014  0.2500  0.2500  -1.5471   0.0000   0.4247
  -3.000   1.1767   0.05606   0.05007  -0.2009  0.2500  0.2500  -1.6278   0.0000   0.4155
  -2.500   1.2285   0.05694   0.05096  -0.2002  0.2500  0.2500  -1.7130   0.0000   0.4069
  -2.000   1.2795   0.05780   0.05184  -0.1993  0.2500  0.2500  -1.8006   0.0000   0.3990
  -1.500   1.3297   0.05866   0.05274  -0.1984  0.2500  0.2500  -1.8921   0.0000   0.3917
  -1.000   1.3793   0.05954   0.05365  -0.1973  0.2491  0.2500  -1.9845   0.0000   0.3848
  -0.500   1.4277   0.06044   0.05455  -0.1961  0.2427  0.2500  -2.0769   0.0000   0.3783
   0.000   1.4747   0.06137   0.05545  -0.1947  0.2339  0.2500  -2.1729   0.0000   0.3722
   0.500   1.5210   0.06235   0.05643  -0.1931  0.2265  0.2500  -2.2739   0.0000   0.3664
   1.000   1.5654   0.06342   0.05748  -0.1913  0.2188  0.2500  -2.3738   0.0000   0.3609
   1.500   1.6097   0.06450   0.05858  -0.1895  0.2124  0.2500  -2.4783   0.0000   0.3556
   2.000   1.6524   0.06562   0.05968  -0.1875  0.2040  0.2500  -2.5876   0.0000   0.3505
   2.500   1.6954   0.06673   0.06082  -0.1856  0.1980  0.2500  -2.6998   0.0000   0.3457
   3.000   1.7362   0.06792   0.06200  -0.1833  0.1900  0.2500  -2.8144   0.0000   0.3410
   3.500   1.7768   0.06910   0.06321  -0.1811  0.1831  0.2500  -2.9387   0.0000   0.3364
   4.000   1.8152   0.07040   0.06451  -0.1786  0.1755  0.2500  -3.0637   0.0000   0.3320
   4.500   1.8508   0.07190   0.06602  -0.1757  0.1675  0.2500  -3.1961   0.0000   0.3277
   5.000   1.8851   0.07346   0.06761  -0.1728  0.1604  0.2500  -3.3363   0.0000   0.3234
   5.500   1.9175   0.07512   0.06926  -0.1697  0.1514  0.2500  -3.4812   0.0000   0.3193
   6.000   1.9499   0.07677   0.07094  -0.1666  0.1437  0.2500  -3.6497   0.0000   0.3153
   6.500   1.9768   0.07887   0.07306  -0.1631  0.1344  0.2500  -3.8111   0.0000   0.3113
   7.000   2.0034   0.08098   0.07518  -0.1596  0.1271  0.2500  -3.9780   0.0000   0.3074
   7.500   2.0279   0.08323   0.07747  -0.1560  0.1194  0.2500  -4.1535   0.0000   0.3035
   8.000   2.0487   0.08582   0.08010  -0.1522  0.1112  0.2500  -4.3356   0.0000   0.2998
   8.500   2.0669   0.08863   0.08295  -0.1485  0.1034  0.2500  -4.5136   0.0000   0.2961
   9.000   2.0824   0.09170   0.08605  -0.1447  0.0955  0.2500  -4.6937   0.0000   0.2926
   9.500   2.0939   0.09518   0.08957  -0.1410  0.0883  0.2500  -4.8713   0.0000   0.2891
  10.000   2.1014   0.09906   0.09352  -0.1375  0.0816  0.2500  -5.0421   0.0000   0.2859
  10.500   2.1074   0.10313   0.09766  -0.1344  0.0751  0.2500  -5.2146   0.0000   0.2828
  11.000   2.1104   0.10757   0.10219  -0.1318  0.0693  0.2500  -5.3831   0.0000   0.2800
  11.500   2.1112   0.11227   0.10697  -0.1298  0.0640  0.2500  -5.5437   0.0000   0.2775
  12.000   2.1083   0.11741   0.11222  -0.1284  0.0593  0.2500  -5.6899   0.0000   0.2754
  12.500   2.1027   0.12288   0.11780  -0.1278  0.0549  0.2500  -5.8244   0.0000   0.2736
  13.000   2.0973   0.12835   0.12339  -0.1280  0.0512  0.2500  -5.9570   0.0000   0.2722
  13.500   2.0875   0.13436   0.12953  -0.1291  0.0476  0.2500  -6.0689   0.0000   0.2712
  14.000   2.0738   0.14090   0.13620  -0.1313  0.0441  0.2500  -6.1608   0.0000   0.2708
  14.500   2.0624   0.14721   0.14266  -0.1340  0.0414  0.2500  -6.2567   0.0000   0.2706
  15.000   2.0466   0.15410   0.14970  -0.1378  0.0390  0.2500  -6.3285   0.0000   0.2710
  15.500   2.0323   0.16084   0.15660  -0.1420  0.0369  0.2500  -6.4006   0.0000   0.2716
  16.000   2.0150   0.16799   0.16388  -0.1471  0.0349  0.2500  -6.4529   0.0000   0.2726
  16.500   1.9993   0.17492   0.17098  -0.1525  0.0331  0.2500  -6.5101   0.0000   0.2738
  17.000   1.9808   0.18222   0.17841  -0.1587  0.0313  0.2500  -6.5513   0.0000   0.2755
  17.500   1.9673   0.18879   0.18513  -0.1645  0.0298  0.2500  -6.6131   0.0000   0.2768
  18.000   1.9525   0.19553   0.19199  -0.1708  0.0281  0.2500  -6.6619   0.0000   0.2784
  18.500   1.9415   0.20169   0.19826  -0.1767  0.0268  0.2500  -6.7268   0.0000   0.2798
  19.000   1.9297   0.20791   0.20460  -0.1831  0.0252  0.2500  -6.7821   0.0000   0.2813
  19.500   1.9195   0.21386   0.21065  -0.1893  0.0239  0.2500  -6.8411   0.0000   0.2828
  20.000   1.9100   0.21963   0.21653  -0.1957  0.0225  0.2500  -6.9033   0.0000   0.2843
  20.500   1.9004   0.22537   0.22237  -0.2022  0.0213  0.2500  -6.9664   0.0000   0.2859
  21.000   1.8943   0.23046   0.22756  -0.2081  0.0201  0.2500  -7.0511   0.0000   0.2869
  21.500   1.8872   0.23566   0.23283  -0.2144  0.0189  0.2500  -7.1235   0.0000   0.2882
  22.000   1.8814   0.24055   0.23783  -0.2204  0.0180  0.2500  -7.2056   0.0000   0.2894
  22.500   1.8739   0.24566   0.24303  -0.2270  0.0170  0.2500  -7.2722   0.0000   0.2908
  23.000   1.8675   0.25049   0.24794  -0.2333  0.0161  0.2500  -7.3437   0.0000   0.2921
  23.500   1.8634   0.25481   0.25234  -0.2391  0.0151  0.2500  -7.4328   0.0000   0.2929
  24.000   1.8550   0.25986   0.25746  -0.2461  0.0142  0.2500  -7.4773   0.0000   0.2945


