xflr5 v6.47

 Calculated polar for: NACA24018_theta30_Ku4.5_Kl0.5_d0.21_delta5.84

 1 1 Reynolds number fixed          Mach number fixed         

 xtrf =   0.250 (top)        0.250 (bottom)
 Mach =   0.000     Re =     0.800 e 6     Ncrit =   5.000

  alpha     CL        CD       CDp       Cm    Top Xtr Bot Xtr   Cpmin    Chinge    XCp    
 ------- -------- --------- --------- -------- ------- ------- -------- --------- ---------
 -15.000  -0.7613   0.03144   0.02441  -0.1063  0.2500  0.0354  -5.6080   0.0000   0.0854
 -14.500  -0.7359   0.02974   0.02262  -0.1048  0.2500  0.0363  -5.3734   0.0000   0.0833
 -14.000  -0.6971   0.02826   0.02109  -0.1051  0.2500  0.0375  -5.0936   0.0000   0.0753
 -13.500  -0.6483   0.02717   0.01991  -0.1064  0.2500  0.0391  -4.7879   0.0000   0.0620
 -13.000  -0.5932   0.02620   0.01887  -0.1085  0.2500  0.0407  -4.4816   0.0000   0.0430
 -12.500  -0.5336   0.02546   0.01808  -0.1110  0.2500  0.0426  -4.1670   0.0000   0.0172
 -12.000  -0.4707   0.02488   0.01743  -0.1138  0.2500  0.0448  -3.8511   0.0000  -0.0176
 -11.500  -0.4057   0.02444   0.01694  -0.1167  0.2500  0.0475  -3.5373   0.0000  -0.0653
 -11.000  -0.3383   0.02411   0.01657  -0.1199  0.2500  0.0503  -3.2293   0.0000  -0.1351
 -10.500  -0.2703   0.02391   0.01633  -0.1231  0.2500  0.0538  -2.9396   0.0000  -0.2404
 -10.000  -0.2012   0.02379   0.01618  -0.1263  0.2500  0.0578  -2.6565   0.0000  -0.4208
  -9.500  -0.1309   0.02376   0.01613  -0.1297  0.2500  0.0624  -2.3858   0.0000  -0.8010
  -9.000  -0.0602   0.02381   0.01617  -0.1330  0.2500  0.0682  -2.1297   0.0000  -2.0778
  -8.500   0.0105   0.02394   0.01629  -0.1363  0.2500  0.0752  -1.8877   0.0000  13.8560
  -8.000   0.0820   0.02414   0.01649  -0.1396  0.2500  0.0837  -1.6592   0.0000   2.0236
  -7.500   0.1543   0.02440   0.01677  -0.1431  0.2500  0.0953  -1.4377   0.0000   1.2106
  -7.000   0.2274   0.02473   0.01713  -0.1466  0.2500  0.1110  -1.2273   0.0000   0.9144
  -6.500   0.3021   0.02514   0.01759  -0.1504  0.2500  0.1337  -1.0367   0.0000   0.7607
  -6.000   0.3819   0.02567   0.01823  -0.1552  0.2500  0.1732  -0.8524   0.0000   0.6649
  -5.500   0.4742   0.02644   0.01921  -0.1625  0.2500  0.2500  -0.8916   0.0000   0.5979
  -5.000   0.5347   0.02688   0.01959  -0.1633  0.2500  0.2500  -0.9575   0.0000   0.5588
  -4.500   0.5947   0.02733   0.02000  -0.1640  0.2500  0.2500  -1.0254   0.0000   0.5277
  -4.000   0.6540   0.02780   0.02043  -0.1646  0.2500  0.2500  -1.0968   0.0000   0.5023
  -3.500   0.7127   0.02828   0.02088  -0.1651  0.2500  0.2500  -1.1688   0.0000   0.4811
  -3.000   0.7708   0.02877   0.02136  -0.1654  0.2500  0.2500  -1.2412   0.0000   0.4631
  -2.500   0.8282   0.02928   0.02186  -0.1656  0.2500  0.2500  -1.3159   0.0000   0.4476
  -2.000   0.8850   0.02981   0.02240  -0.1657  0.2500  0.2500  -1.3958   0.0000   0.4341
  -1.500   0.9413   0.03035   0.02295  -0.1658  0.2500  0.2500  -1.4762   0.0000   0.4221
  -1.000   0.9969   0.03092   0.02354  -0.1656  0.2500  0.2500  -1.5569   0.0000   0.4114
  -0.500   1.0517   0.03150   0.02415  -0.1654  0.2500  0.2500  -1.6445   0.0000   0.4018
   0.000   1.1057   0.03212   0.02481  -0.1650  0.2500  0.2500  -1.7329   0.0000   0.3931
   0.500   1.1588   0.03277   0.02551  -0.1645  0.2500  0.2500  -1.8216   0.0000   0.3850
   1.000   1.2111   0.03346   0.02625  -0.1638  0.2500  0.2500  -1.9109   0.0000   0.3777
   1.500   1.2626   0.03417   0.02703  -0.1630  0.2500  0.2500  -2.0064   0.0000   0.3708
   2.000   1.3135   0.03492   0.02784  -0.1621  0.2498  0.2500  -2.1075   0.0000   0.3644
   2.500   1.3623   0.03575   0.02868  -0.1610  0.2415  0.2500  -2.2082   0.0000   0.3584
   3.000   1.4100   0.03661   0.02957  -0.1596  0.2344  0.2500  -2.3088   0.0000   0.3527
   3.500   1.4566   0.03753   0.03051  -0.1581  0.2270  0.2500  -2.4123   0.0000   0.3472
   4.000   1.5015   0.03856   0.03158  -0.1564  0.2206  0.2500  -2.5204   0.0000   0.3421
   4.500   1.5450   0.03967   0.03272  -0.1545  0.2131  0.2500  -2.6342   0.0000   0.3371
   5.000   1.5870   0.04086   0.03395  -0.1524  0.2060  0.2500  -2.7520   0.0000   0.3323
   5.500   1.6281   0.04211   0.03524  -0.1502  0.1985  0.2500  -2.8767   0.0000   0.3277
   6.000   1.6671   0.04348   0.03667  -0.1478  0.1918  0.2500  -3.0012   0.0000   0.3232
   6.500   1.7034   0.04504   0.03828  -0.1451  0.1843  0.2500  -3.1358   0.0000   0.3188
   7.000   1.7397   0.04661   0.03992  -0.1425  0.1777  0.2500  -3.2722   0.0000   0.3146
   7.500   1.7707   0.04858   0.04192  -0.1393  0.1694  0.2500  -3.4151   0.0000   0.3104
   8.000   1.8034   0.05044   0.04388  -0.1363  0.1628  0.2500  -3.5708   0.0000   0.3064
   8.500   1.8301   0.05275   0.04625  -0.1329  0.1550  0.2500  -3.7259   0.0000   0.3024
   9.000   1.8533   0.05540   0.04895  -0.1293  0.1466  0.2500  -3.8896   0.0000   0.2985
   9.500   1.8773   0.05807   0.05173  -0.1259  0.1399  0.2500  -4.0662   0.0000   0.2948
  10.000   1.8954   0.06129   0.05504  -0.1224  0.1326  0.2500  -4.2313   0.0000   0.2911
  10.500   1.9087   0.06504   0.05887  -0.1188  0.1253  0.2500  -4.3856   0.0000   0.2876
  11.000   1.9192   0.06919   0.06313  -0.1155  0.1175  0.2500  -4.5376   0.0000   0.2844
  11.500   1.9256   0.07389   0.06794  -0.1126  0.1099  0.2500  -4.6908   0.0000   0.2814
  12.000   1.9291   0.07902   0.07320  -0.1102  0.1035  0.2500  -4.8366   0.0000   0.2787
  12.500   1.9280   0.08476   0.07907  -0.1083  0.0979  0.2500  -4.9720   0.0000   0.2764
  13.000   1.9235   0.09101   0.08547  -0.1073  0.0921  0.2500  -5.0956   0.0000   0.2746
  13.500   1.9162   0.09773   0.09234  -0.1071  0.0864  0.2500  -5.2067   0.0000   0.2733
  14.000   1.9041   0.10515   0.09992  -0.1080  0.0810  0.2500  -5.2974   0.0000   0.2725
  14.500   1.8881   0.11318   0.10811  -0.1100  0.0762  0.2500  -5.3708   0.0000   0.2725
  15.000   1.8723   0.12132   0.11642  -0.1130  0.0716  0.2500  -5.4397   0.0000   0.2729
  15.500   1.8556   0.12966   0.12493  -0.1168  0.0676  0.2500  -5.4983   0.0000   0.2738
  16.000   1.8357   0.13851   0.13394  -0.1217  0.0638  0.2500  -5.5358   0.0000   0.2754
  16.500   1.8178   0.14712   0.14272  -0.1271  0.0600  0.2500  -5.5737   0.0000   0.2772
  17.000   1.8014   0.15558   0.15132  -0.1329  0.0566  0.2500  -5.6147   0.0000   0.2792
  17.500   1.7845   0.16414   0.16002  -0.1394  0.0531  0.2500  -5.6496   0.0000   0.2817
  18.000   1.7725   0.17198   0.16799  -0.1456  0.0498  0.2500  -5.7020   0.0000   0.2839
  18.500   1.7617   0.17964   0.17577  -0.1521  0.0470  0.2500  -5.7539   0.0000   0.2862
  19.000   1.7504   0.18737   0.18361  -0.1590  0.0441  0.2500  -5.7968   0.0000   0.2887
  19.500   1.7451   0.19408   0.19044  -0.1651  0.0413  0.2500  -5.8683   0.0000   0.2906
  20.000   1.7394   0.20083   0.19728  -0.1716  0.0387  0.2500  -5.9319   0.0000   0.2927
  20.500   1.7335   0.20755   0.20409  -0.1783  0.0363  0.2500  -5.9900   0.0000   0.2949
  21.000   1.7314   0.21358   0.21022  -0.1845  0.0341  0.2500  -6.0674   0.0000   0.2966
  21.500   1.7266   0.22005   0.21677  -0.1914  0.0321  0.2500  -6.1266   0.0000   0.2988
  22.000   1.7251   0.22588   0.22270  -0.1977  0.0301  0.2500  -6.2119   0.0000   0.3005
  22.500   1.7230   0.23176   0.22867  -0.2044  0.0284  0.2500  -6.2888   0.0000   0.3024
  23.000   1.7234   0.23710   0.23409  -0.2105  0.0267  0.2500  -6.3824   0.0000   0.3038
  23.500   1.7220   0.24271   0.23978  -0.2171  0.0252  0.2500  -6.4577   0.0000   0.3055
  24.000   1.7217   0.24805   0.24521  -0.2236  0.0237  0.2500  -6.5378   0.0000   0.3071
  24.500   1.7215   0.25326   0.25049  -0.2301  0.0225  0.2500  -6.6167   0.0000   0.3086
  25.000   1.7228   0.25809   0.25541  -0.2362  0.0213  0.2500  -6.7057   0.0000   0.3097


