xflr5 v6.47

 Calculated polar for: NACA24018_theta30_Ku4.5_Kl0.5_d0.28_delta9.02

 1 1 Reynolds number fixed          Mach number fixed         

 xtrf =   0.250 (top)        0.250 (bottom)
 Mach =   0.000     Re =     2.500 e 6     Ncrit =   5.000

  alpha     CL        CD       CDp       Cm    Top Xtr Bot Xtr   Cpmin    Chinge    XCp    
 ------- -------- --------- --------- -------- ------- ------- -------- --------- ---------
 -15.000  -0.3737   0.03449   0.02884  -0.1541  0.2500  0.0362  -4.3323   0.0000  -0.2051
 -14.500  -0.3040   0.03475   0.02906  -0.1577  0.2500  0.0376  -3.9897   0.0000  -0.3174
 -14.000  -0.2314   0.03511   0.02941  -0.1617  0.2500  0.0397  -3.6488   0.0000  -0.5083
 -13.500  -0.1606   0.03557   0.02984  -0.1652  0.2500  0.0415  -3.3232   0.0000  -0.8580
 -13.000  -0.0881   0.03613   0.03039  -0.1690  0.2500  0.0448  -3.0036   0.0000  -1.8018
 -12.500  -0.0175   0.03675   0.03099  -0.1724  0.2500  0.0474  -2.6999   0.0000  -10.2219
 -12.000   0.0533   0.03744   0.03167  -0.1756  0.2500  0.0504  -2.4170   0.0000   3.7341
 -11.500   0.1252   0.03823   0.03245  -0.1791  0.2500  0.0544  -2.1564   0.0000   1.7532
 -11.000   0.1954   0.03906   0.03328  -0.1821  0.2500  0.0592  -1.9084   0.0000   1.2243
 -10.500   0.2651   0.03994   0.03416  -0.1850  0.2500  0.0643  -1.6710   0.0000   0.9763
 -10.000   0.3350   0.04089   0.03511  -0.1879  0.2500  0.0710  -1.4449   0.0000   0.8309
  -9.500   0.4053   0.04190   0.03613  -0.1908  0.2500  0.0792  -1.2352   0.0000   0.7354
  -9.000   0.4742   0.04293   0.03718  -0.1934  0.2500  0.0883  -1.0432   0.0000   0.6688
  -8.500   0.5433   0.04402   0.03830  -0.1960  0.2500  0.1003  -0.9379   0.0000   0.6188
  -8.000   0.6129   0.04520   0.03950  -0.1986  0.2500  0.1164  -0.9556   0.0000   0.5799
  -7.500   0.6855   0.04652   0.04088  -0.2018  0.2500  0.1402  -0.9755   0.0000   0.5484
  -7.000   0.7648   0.04815   0.04260  -0.2060  0.2500  0.1805  -1.0511   0.0000   0.5219
  -6.500   0.8535   0.05024   0.04483  -0.2119  0.2500  0.2500  -1.1422   0.0000   0.4994
  -6.000   0.9077   0.05109   0.04567  -0.2117  0.2500  0.2500  -1.2115   0.0000   0.4833
  -5.500   0.9616   0.05194   0.04650  -0.2114  0.2500  0.2500  -1.2837   0.0000   0.4689
  -5.000   1.0152   0.05279   0.04734  -0.2110  0.2500  0.2500  -1.3576   0.0000   0.4560
  -4.500   1.0687   0.05364   0.04818  -0.2106  0.2500  0.2500  -1.4350   0.0000   0.4443
  -4.000   1.1217   0.05448   0.04903  -0.2101  0.2500  0.2500  -1.5138   0.0000   0.4337
  -3.500   1.1740   0.05531   0.04986  -0.2095  0.2500  0.2500  -1.5929   0.0000   0.4241
  -3.000   1.2257   0.05612   0.05068  -0.2087  0.2500  0.2500  -1.6747   0.0000   0.4152
  -2.500   1.2769   0.05692   0.05149  -0.2079  0.2500  0.2500  -1.7616   0.0000   0.4069
  -2.000   1.3272   0.05772   0.05229  -0.2069  0.2456  0.2500  -1.8508   0.0000   0.3993
  -1.500   1.3764   0.05852   0.05305  -0.2058  0.2373  0.2500  -1.9426   0.0000   0.3921
  -1.000   1.4255   0.05932   0.05385  -0.2046  0.2313  0.2500  -2.0355   0.0000   0.3854
  -0.500   1.4732   0.06016   0.05463  -0.2033  0.2213  0.2500  -2.1280   0.0000   0.3791
   0.000   1.5210   0.06100   0.05547  -0.2019  0.2154  0.2500  -2.2286   0.0000   0.3731
   0.500   1.5676   0.06188   0.05632  -0.2004  0.2080  0.2500  -2.3308   0.0000   0.3674
   1.000   1.6138   0.06278   0.05722  -0.1988  0.2010  0.2500  -2.4339   0.0000   0.3619
   1.500   1.6587   0.06373   0.05814  -0.1970  0.1932  0.2500  -2.5431   0.0000   0.3567
   2.000   1.7028   0.06471   0.05913  -0.1951  0.1873  0.2500  -2.6552   0.0000   0.3517
   2.500   1.7434   0.06584   0.06023  -0.1927  0.1786  0.2500  -2.7672   0.0000   0.3469
   3.000   1.7843   0.06696   0.06137  -0.1904  0.1722  0.2500  -2.8857   0.0000   0.3422
   3.500   1.8235   0.06814   0.06252  -0.1879  0.1635  0.2500  -3.0098   0.0000   0.3376
   4.000   1.8625   0.06931   0.06369  -0.1854  0.1563  0.2500  -3.1406   0.0000   0.3333
   4.500   1.9001   0.07055   0.06493  -0.1827  0.1483  0.2500  -3.2795   0.0000   0.3290
   5.000   1.9352   0.07193   0.06628  -0.1797  0.1392  0.2500  -3.4272   0.0000   0.3248
   5.500   1.9656   0.07366   0.06799  -0.1762  0.1288  0.2500  -3.5801   0.0000   0.3206
   6.000   1.9970   0.07533   0.06968  -0.1729  0.1220  0.2500  -3.7486   0.0000   0.3165
   6.500   2.0277   0.07703   0.07138  -0.1696  0.1149  0.2500  -3.9224   0.0000   0.3125
   7.000   2.0536   0.07908   0.07343  -0.1658  0.1056  0.2500  -4.0942   0.0000   0.3086
   7.500   2.0760   0.08147   0.07582  -0.1618  0.0975  0.2500  -4.2752   0.0000   0.3047
   8.000   2.0978   0.08384   0.07819  -0.1579  0.0887  0.2500  -4.4623   0.0000   0.3009
   8.500   2.1143   0.08672   0.08109  -0.1536  0.0815  0.2500  -4.6416   0.0000   0.2971
   9.000   2.1299   0.08965   0.08405  -0.1496  0.0747  0.2500  -4.8291   0.0000   0.2934
   9.500   2.1426   0.09286   0.08729  -0.1456  0.0679  0.2500  -5.0172   0.0000   0.2899
  10.000   2.1520   0.09643   0.09091  -0.1417  0.0621  0.2500  -5.2023   0.0000   0.2865
  10.500   2.1583   0.10036   0.09490  -0.1380  0.0569  0.2500  -5.3859   0.0000   0.2832
  11.000   2.1626   0.10451   0.09913  -0.1348  0.0523  0.2500  -5.5636   0.0000   0.2802
  11.500   2.1627   0.10916   0.10386  -0.1321  0.0480  0.2500  -5.7274   0.0000   0.2774
  12.000   2.1602   0.11413   0.10891  -0.1301  0.0438  0.2500  -5.8808   0.0000   0.2750
  12.500   2.1582   0.11907   0.11395  -0.1287  0.0404  0.2500  -6.0342   0.0000   0.2728
  13.000   2.1542   0.12426   0.11925  -0.1281  0.0379  0.2500  -6.1787   0.0000   0.2710
  13.500   2.1459   0.12994   0.12504  -0.1283  0.0354  0.2500  -6.3040   0.0000   0.2696
  14.000   2.1396   0.13542   0.13065  -0.1292  0.0334  0.2500  -6.4338   0.0000   0.2684
  14.500   2.1272   0.14166   0.13702  -0.1311  0.0313  0.2500  -6.5349   0.0000   0.2678
  15.000   2.1177   0.14757   0.14307  -0.1335  0.0298  0.2500  -6.6438   0.0000   0.2674
  15.500   2.1021   0.15427   0.14990  -0.1371  0.0281  0.2500  -6.7209   0.0000   0.2675
  16.000   2.0880   0.16075   0.15653  -0.1410  0.0269  0.2500  -6.8063   0.0000   0.2679
  16.500   2.0706   0.16768   0.16361  -0.1458  0.0256  0.2500  -6.8724   0.0000   0.2687
  17.000   2.0522   0.17475   0.17082  -0.1513  0.0243  0.2500  -6.9270   0.0000   0.2698
  17.500   2.0368   0.18138   0.17758  -0.1567  0.0232  0.2500  -6.9915   0.0000   0.2709
  18.000   2.0191   0.18832   0.18465  -0.1629  0.0219  0.2500  -7.0375   0.0000   0.2723
  18.500   2.0036   0.19494   0.19141  -0.1690  0.0209  0.2500  -7.0893   0.0000   0.2738
  19.000   1.9897   0.20132   0.19790  -0.1752  0.0197  0.2500  -7.1443   0.0000   0.2752
  19.500   1.9761   0.20762   0.20431  -0.1816  0.0187  0.2500  -7.1971   0.0000   0.2767
  20.000   1.9664   0.21326   0.21006  -0.1875  0.0178  0.2500  -7.2781   0.0000   0.2779
  20.500   1.9553   0.21908   0.21597  -0.1939  0.0168  0.2500  -7.3449   0.0000   0.2793
  21.000   1.9481   0.22420   0.22118  -0.1997  0.0159  0.2500  -7.4354   0.0000   0.2802
  21.500   1.9384   0.22968   0.22676  -0.2061  0.0150  0.2500  -7.5080   0.0000   0.2816
  22.000   1.9274   0.23530   0.23247  -0.2130  0.0141  0.2500  -7.5652   0.0000   0.2833
  22.500   1.9197   0.24027   0.23754  -0.2191  0.0135  0.2500  -7.6445   0.0000   0.2844
  23.000   1.9140   0.24484   0.24219  -0.2250  0.0128  0.2500  -7.7359   0.0000   0.2853
  23.500   1.9060   0.24970   0.24713  -0.2314  0.0122  0.2500  -7.8051   0.0000   0.2865
  24.000   1.8988   0.25437   0.25189  -0.2377  0.0117  0.2500  -7.8760   0.0000   0.2877
  24.500   1.8915   0.25897   0.25658  -0.2441  0.0111  0.2500  -7.9422   0.0000   0.2888


