xflr5 v6.47

 Calculated polar for: NACA24018_theta30_Ku4.5_Kl0.5_d0.35_delta13.38

 1 1 Reynolds number fixed          Mach number fixed         

 xtrf =   0.250 (top)        0.250 (bottom)
 Mach =   0.000     Re =     0.200 e 6     Ncrit =   5.000

  alpha     CL        CD       CDp       Cm    Top Xtr Bot Xtr   Cpmin    Chinge    XCp    
 ------- -------- --------- --------- -------- ------- ------- -------- --------- ---------
 -15.000  -0.2553   0.05977   0.05243  -0.1203  0.2500  0.0695  -3.4586   0.0000  -0.2677
 -14.500  -0.1712   0.05950   0.05189  -0.1281  0.2500  0.0743  -3.1327   0.0000  -0.5606
 -14.000  -0.0959   0.05972   0.05202  -0.1333  0.2500  0.0789  -2.8348   0.0000  -1.2407
 -13.500  -0.0200   0.06026   0.05246  -0.1383  0.2500  0.0845  -2.5439   0.0000  -7.0842
 -13.000   0.0540   0.06104   0.05314  -0.1427  0.2500  0.0909  -2.2683   0.0000   3.0335
 -12.500   0.1261   0.06208   0.05412  -0.1466  0.2500  0.0986  -2.0189   0.0000   1.4637
 -12.000   0.1970   0.06335   0.05534  -0.1501  0.2500  0.1079  -1.7883   0.0000   1.0400
 -11.500   0.2675   0.06478   0.05673  -0.1535  0.2500  0.1195  -1.5649   0.0000   0.8408
 -11.000   0.3397   0.06645   0.05841  -0.1571  0.2500  0.1340  -1.3438   0.0000   0.7228
 -10.500   0.4130   0.06831   0.06027  -0.1607  0.2500  0.1547  -1.1349   0.0000   0.6454
 -10.000   0.4916   0.07059   0.06263  -0.1653  0.2500  0.1852  -0.9340   0.0000   0.5891
  -9.500   0.5833   0.07375   0.06595  -0.1719  0.2500  0.2438  -0.8410   0.0000   0.5452
  -9.000   0.6376   0.07509   0.06718  -0.1721  0.2500  0.2500  -0.9005   0.0000   0.5188
  -8.500   0.6907   0.07642   0.06840  -0.1721  0.2500  0.2500  -0.9608   0.0000   0.4968
  -8.000   0.7440   0.07780   0.06969  -0.1722  0.2500  0.2500  -1.0244   0.0000   0.4778
  -7.500   0.7970   0.07922   0.07103  -0.1723  0.2500  0.2500  -1.0891   0.0000   0.4614
  -7.000   0.8494   0.08064   0.07239  -0.1723  0.2500  0.2500  -1.1545   0.0000   0.4471
  -6.500   0.9011   0.08206   0.07378  -0.1721  0.2500  0.2500  -1.2231   0.0000   0.4343
  -6.000   0.9520   0.08348   0.07517  -0.1719  0.2500  0.2500  -1.2947   0.0000   0.4230
  -5.500   1.0020   0.08487   0.07655  -0.1715  0.2500  0.2500  -1.3665   0.0000   0.4127
  -5.000   1.0511   0.08626   0.07794  -0.1710  0.2500  0.2500  -1.4399   0.0000   0.4035
  -4.500   1.0994   0.08765   0.07934  -0.1703  0.2500  0.2500  -1.5156   0.0000   0.3949
  -4.000   1.1468   0.08903   0.08075  -0.1696  0.2500  0.2500  -1.5942   0.0000   0.3871
  -3.500   1.1934   0.09040   0.08217  -0.1687  0.2500  0.2500  -1.6729   0.0000   0.3798
  -3.000   1.2394   0.09176   0.08359  -0.1678  0.2500  0.2500  -1.7543   0.0000   0.3731
  -2.500   1.2847   0.09311   0.08499  -0.1668  0.2500  0.2500  -1.8405   0.0000   0.3667
  -2.000   1.3292   0.09443   0.08639  -0.1657  0.2500  0.2500  -1.9267   0.0000   0.3608
  -1.500   1.3728   0.09572   0.08778  -0.1644  0.2500  0.2500  -2.0129   0.0000   0.3551
  -1.000   1.4157   0.09699   0.08914  -0.1631  0.2500  0.2500  -2.1038   0.0000   0.3498
  -0.500   1.4578   0.09824   0.09050  -0.1618  0.2500  0.2500  -2.1977   0.0000   0.3447
   0.000   1.4994   0.09945   0.09183  -0.1603  0.2500  0.2500  -2.2919   0.0000   0.3398
   0.500   1.5402   0.10065   0.09315  -0.1588  0.2500  0.2500  -2.3898   0.0000   0.3352
   1.000   1.5805   0.10179   0.09441  -0.1572  0.2500  0.2500  -2.4940   0.0000   0.3307
   1.500   1.6206   0.10283   0.09559  -0.1556  0.2500  0.2500  -2.6009   0.0000   0.3264
   2.000   1.6609   0.10372   0.09662  -0.1541  0.2500  0.2500  -2.7092   0.0000   0.3222
   2.500   1.7019   0.10438   0.09742  -0.1525  0.2500  0.2500  -2.8314   0.0000   0.3182
   3.000   1.7397   0.10530   0.09850  -0.1507  0.2467  0.2500  -2.9524   0.0000   0.3143
   3.500   1.7689   0.10710   0.10045  -0.1484  0.2382  0.2500  -3.0696   0.0000   0.3105
   4.000   1.7961   0.10892   0.10233  -0.1461  0.2307  0.2500  -3.1892   0.0000   0.3069
   4.500   1.8214   0.11097   0.10458  -0.1437  0.2227  0.2500  -3.3182   0.0000   0.3033
   5.000   1.8445   0.11307   0.10674  -0.1413  0.2154  0.2500  -3.4485   0.0000   0.2998
   5.500   1.8651   0.11551   0.10939  -0.1389  0.2072  0.2500  -3.5863   0.0000   0.2964
   6.000   1.8839   0.11796   0.11193  -0.1366  0.2001  0.2500  -3.7288   0.0000   0.2932
   6.500   1.9004   0.12072   0.11490  -0.1344  0.1922  0.2500  -3.8733   0.0000   0.2900
   7.000   1.9140   0.12366   0.11796  -0.1323  0.1851  0.2500  -4.0152   0.0000   0.2870
   7.500   1.9254   0.12690   0.12141  -0.1305  0.1772  0.2500  -4.1636   0.0000   0.2842
   8.000   1.9343   0.13031   0.12499  -0.1289  0.1699  0.2500  -4.3099   0.0000   0.2816
   8.500   1.9401   0.13408   0.12892  -0.1278  0.1625  0.2500  -4.4473   0.0000   0.2792
   9.000   1.9447   0.13793   0.13299  -0.1271  0.1551  0.2500  -4.5875   0.0000   0.2770
   9.500   1.9451   0.14221   0.13738  -0.1270  0.1481  0.2500  -4.7178   0.0000   0.2752
  10.000   1.9450   0.14657   0.14200  -0.1275  0.1405  0.2500  -4.8432   0.0000   0.2736
  10.500   1.9422   0.15115   0.14676  -0.1286  0.1337  0.2500  -4.9581   0.0000   0.2724
  11.000   1.9360   0.15611   0.15187  -0.1305  0.1267  0.2500  -5.0583   0.0000   0.2716
  11.500   1.9294   0.16111   0.15711  -0.1330  0.1197  0.2500  -5.1516   0.0000   0.2711
  12.000   1.9203   0.16635   0.16251  -0.1363  0.1132  0.2500  -5.2346   0.0000   0.2710
  12.500   1.9101   0.17173   0.16803  -0.1402  0.1067  0.2500  -5.3154   0.0000   0.2713
  13.000   1.8985   0.17730   0.17382  -0.1449  0.1001  0.2500  -5.3831   0.0000   0.2719
  13.500   1.8870   0.18283   0.17951  -0.1499  0.0939  0.2500  -5.4467   0.0000   0.2727
  14.000   1.8759   0.18831   0.18511  -0.1553  0.0880  0.2500  -5.5073   0.0000   0.2737
  14.500   1.8643   0.19386   0.19080  -0.1611  0.0821  0.2500  -5.5602   0.0000   0.2750
  15.000   1.8532   0.19930   0.19642  -0.1671  0.0765  0.2500  -5.6175   0.0000   0.2763
  15.500   1.8437   0.20446   0.20170  -0.1729  0.0714  0.2500  -5.6791   0.0000   0.2775
  16.000   1.8364   0.20921   0.20653  -0.1785  0.0667  0.2500  -5.7510   0.0000   0.2784
  16.500   1.8279   0.21408   0.21152  -0.1845  0.0620  0.2500  -5.8093   0.0000   0.2796


