xflr5 v6.47

 Calculated polar for: NACA24018_theta30_Ku4.5_Kl0.5_d0.24_delta7.31

 1 1 Reynolds number fixed          Mach number fixed         

 xtrf =   0.250 (top)        0.250 (bottom)
 Mach =   0.000     Re =     1.250 e 6     Ncrit =   5.000

  alpha     CL        CD       CDp       Cm    Top Xtr Bot Xtr   Cpmin    Chinge    XCp    
 ------- -------- --------- --------- -------- ------- ------- -------- --------- ---------
 -15.000  -0.6480   0.03056   0.02413  -0.1206  0.2500  0.0353  -5.2485   0.0000   0.0364
 -14.500  -0.5860   0.02991   0.02340  -0.1238  0.2500  0.0366  -4.8882   0.0000   0.0106
 -14.000  -0.5199   0.02940   0.02285  -0.1275  0.2500  0.0384  -4.5364   0.0000  -0.0247
 -13.500  -0.4528   0.02909   0.02248  -0.1310  0.2500  0.0401  -4.1903   0.0000  -0.0707
 -13.000  -0.3833   0.02890   0.02226  -0.1348  0.2500  0.0423  -3.8467   0.0000  -0.1359
 -12.500  -0.3140   0.02886   0.02217  -0.1383  0.2500  0.0445  -3.5136   0.0000  -0.2291
 -12.000  -0.2420   0.02892   0.02221  -0.1422  0.2500  0.0472  -3.1974   0.0000  -0.3839
 -11.500  -0.1712   0.02909   0.02234  -0.1458  0.2500  0.0504  -2.8945   0.0000  -0.6610
 -11.000  -0.1002   0.02933   0.02256  -0.1492  0.2500  0.0540  -2.6106   0.0000  -1.3327
 -10.500  -0.0280   0.02966   0.02288  -0.1528  0.2500  0.0586  -2.3369   0.0000  -5.5178
 -10.000   0.0441   0.03007   0.02328  -0.1563  0.2500  0.0636  -2.0732   0.0000   3.9731
  -9.500   0.1155   0.03055   0.02374  -0.1596  0.2500  0.0693  -1.8290   0.0000   1.6936
  -9.000   0.1871   0.03109   0.02429  -0.1629  0.2500  0.0772  -1.5993   0.0000   1.1547
  -8.000   0.3318   0.03236   0.02559  -0.1696  0.2500  0.0988  -1.1797   0.0000   0.7762
  -7.500   0.4045   0.03310   0.02636  -0.1729  0.2500  0.1145  -0.9897   0.0000   0.6881
  -7.000   0.4795   0.03395   0.02727  -0.1767  0.2500  0.1387  -0.8358   0.0000   0.6259
  -6.500   0.5621   0.03504   0.02848  -0.1818  0.2500  0.1838  -0.9150   0.0000   0.5784
  -6.000   0.6518   0.03642   0.03001  -0.1882  0.2500  0.2500  -1.0028   0.0000   0.5418
  -5.500   0.7103   0.03706   0.03061  -0.1886  0.2500  0.2500  -1.0697   0.0000   0.5174
  -5.000   0.7680   0.03770   0.03122  -0.1889  0.2500  0.2500  -1.1391   0.0000   0.4966
  -4.500   0.8250   0.03833   0.03183  -0.1891  0.2500  0.2500  -1.2130   0.0000   0.4788
  -4.000   0.8815   0.03898   0.03247  -0.1892  0.2500  0.2500  -1.2874   0.0000   0.4632
  -3.500   0.9375   0.03963   0.03311  -0.1892  0.2500  0.2500  -1.3624   0.0000   0.4495
  -3.000   0.9928   0.04030   0.03378  -0.1890  0.2500  0.2500  -1.4405   0.0000   0.4373
  -2.500   1.0477   0.04097   0.03446  -0.1888  0.2500  0.2500  -1.5199   0.0000   0.4263
  -2.000   1.1021   0.04166   0.03516  -0.1885  0.2500  0.2500  -1.6020   0.0000   0.4163
  -1.500   1.1559   0.04236   0.03588  -0.1881  0.2500  0.2500  -1.6898   0.0000   0.4073
  -1.000   1.2091   0.04307   0.03662  -0.1876  0.2500  0.2500  -1.7782   0.0000   0.3989
  -0.500   1.2616   0.04379   0.03738  -0.1869  0.2500  0.2500  -1.8688   0.0000   0.3912
   0.000   1.3134   0.04454   0.03817  -0.1862  0.2500  0.2500  -1.9618   0.0000   0.3841
   0.500   1.3634   0.04535   0.03899  -0.1851  0.2450  0.2500  -2.0573   0.0000   0.3774
   1.000   1.4119   0.04620   0.03984  -0.1839  0.2372  0.2500  -2.1536   0.0000   0.3711
   1.500   1.4595   0.04709   0.04073  -0.1825  0.2300  0.2500  -2.2581   0.0000   0.3651
   2.000   1.5063   0.04801   0.04165  -0.1810  0.2213  0.2500  -2.3634   0.0000   0.3595
   2.500   1.5524   0.04896   0.04260  -0.1794  0.2148  0.2500  -2.4691   0.0000   0.3541
   3.000   1.5977   0.04993   0.04359  -0.1776  0.2084  0.2500  -2.5751   0.0000   0.3489
   3.500   1.6414   0.05098   0.04466  -0.1757  0.2013  0.2500  -2.6874   0.0000   0.3440
   4.000   1.6841   0.05209   0.04579  -0.1737  0.1934  0.2500  -2.8072   0.0000   0.3392
   4.500   1.7246   0.05336   0.04708  -0.1713  0.1865  0.2500  -2.9343   0.0000   0.3346
   5.000   1.7627   0.05478   0.04851  -0.1687  0.1782  0.2500  -3.0608   0.0000   0.3301
   5.500   1.8011   0.05616   0.04993  -0.1662  0.1716  0.2500  -3.1979   0.0000   0.3257
   6.000   1.8364   0.05772   0.05150  -0.1633  0.1634  0.2500  -3.3341   0.0000   0.3214
   6.500   1.8706   0.05942   0.05325  -0.1603  0.1562  0.2500  -3.4860   0.0000   0.3173
   7.000   1.9014   0.06135   0.05521  -0.1570  0.1482  0.2500  -3.6502   0.0000   0.3131
   7.500   1.9299   0.06342   0.05730  -0.1535  0.1393  0.2500  -3.8157   0.0000   0.3091
   8.000   1.9552   0.06578   0.05971  -0.1498  0.1316  0.2500  -3.9818   0.0000   0.3051
   8.500   1.9801   0.06819   0.06218  -0.1462  0.1246  0.2500  -4.1620   0.0000   0.3013
   9.000   1.9994   0.07110   0.06514  -0.1422  0.1169  0.2500  -4.3359   0.0000   0.2974
   9.500   2.0142   0.07445   0.06853  -0.1381  0.1081  0.2500  -4.5143   0.0000   0.2937
  10.000   2.0272   0.07803   0.07218  -0.1342  0.1008  0.2500  -4.6897   0.0000   0.2901
  10.500   2.0372   0.08199   0.07622  -0.1306  0.0942  0.2500  -4.8580   0.0000   0.2868
  11.000   2.0430   0.08646   0.08078  -0.1272  0.0871  0.2500  -5.0146   0.0000   0.2836
  11.500   2.0445   0.09147   0.08587  -0.1243  0.0804  0.2500  -5.1586   0.0000   0.2808
  12.000   2.0433   0.09686   0.09138  -0.1221  0.0747  0.2500  -5.3046   0.0000   0.2783
  12.500   2.0394   0.10262   0.09725  -0.1206  0.0697  0.2500  -5.4442   0.0000   0.2762
  13.000   2.0361   0.10840   0.10317  -0.1199  0.0653  0.2500  -5.5832   0.0000   0.2744
  13.500   2.0282   0.11478   0.10968  -0.1202  0.0614  0.2500  -5.7032   0.0000   0.2731
  14.000   2.0160   0.12176   0.11680  -0.1215  0.0573  0.2500  -5.8023   0.0000   0.2725
  14.500   2.0044   0.12876   0.12396  -0.1236  0.0535  0.2500  -5.8982   0.0000   0.2722
  15.000   1.9882   0.13637   0.13171  -0.1269  0.0501  0.2500  -5.9701   0.0000   0.2725
  15.500   1.9700   0.14431   0.13981  -0.1311  0.0471  0.2500  -6.0267   0.0000   0.2734
  16.000   1.9540   0.15201   0.14768  -0.1357  0.0445  0.2500  -6.0854   0.0000   0.2744
  16.500   1.9333   0.16039   0.15621  -0.1416  0.0419  0.2500  -6.1159   0.0000   0.2762
  17.000   1.9187   0.16793   0.16390  -0.1471  0.0394  0.2500  -6.1692   0.0000   0.2777
  17.500   1.9001   0.17609   0.17219  -0.1538  0.0373  0.2500  -6.2019   0.0000   0.2799
  18.000   1.8880   0.18326   0.17949  -0.1598  0.0353  0.2500  -6.2656   0.0000   0.2816
  18.500   1.8746   0.19056   0.18692  -0.1664  0.0334  0.2500  -6.3174   0.0000   0.2836
  19.000   1.8660   0.19710   0.19358  -0.1725  0.0317  0.2500  -6.3919   0.0000   0.2852
  19.500   1.8548   0.20403   0.20061  -0.1793  0.0299  0.2500  -6.4446   0.0000   0.2873
  20.000   1.8482   0.21018   0.20688  -0.1855  0.0282  0.2500  -6.5210   0.0000   0.2889
  20.500   1.8392   0.21670   0.21349  -0.1924  0.0265  0.2500  -6.5762   0.0000   0.2910
  21.000   1.8339   0.22255   0.21944  -0.1988  0.0249  0.2500  -6.6516   0.0000   0.2925
  21.500   1.8263   0.22872   0.22570  -0.2057  0.0235  0.2500  -6.7059   0.0000   0.2945
  22.000   1.8236   0.23396   0.23104  -0.2117  0.0223  0.2500  -6.7919   0.0000   0.2957
  22.500   1.8196   0.23933   0.23649  -0.2181  0.0210  0.2500  -6.8649   0.0000   0.2972
  23.000   1.8160   0.24456   0.24181  -0.2244  0.0199  0.2500  -6.9366   0.0000   0.2986
  23.500   1.8113   0.24991   0.24725  -0.2311  0.0188  0.2500  -7.0000   0.0000   0.3002
  24.000   1.8076   0.25498   0.25240  -0.2376  0.0177  0.2500  -7.0762   0.0000   0.3016
  24.500   1.8062   0.25951   0.25701  -0.2436  0.0168  0.2500  -7.1703   0.0000   0.3026
  25.000   1.8009   0.26474   0.26231  -0.2506  0.0159  0.2500  -7.2230   0.0000   0.3043


