xflr5 v6.47

 Calculated polar for: NACA24018_theta30_Ku4.5_Kl0.5_d0.21_delta5.84

 1 1 Reynolds number fixed          Mach number fixed         

 xtrf =   0.250 (top)        0.250 (bottom)
 Mach =   0.000     Re =     0.400 e 6     Ncrit =   5.000

  alpha     CL        CD       CDp       Cm    Top Xtr Bot Xtr   Cpmin    Chinge    XCp    
 ------- -------- --------- --------- -------- ------- ------- -------- --------- ---------
 -15.000  -0.6566   0.03881   0.03109  -0.1113  0.2500  0.0423  -5.1168   0.0000   0.0527
 -14.500  -0.6528   0.03665   0.02880  -0.1075  0.2500  0.0433  -4.9724   0.0000   0.0589
 -14.000  -0.6564   0.03464   0.02668  -0.1022  0.2500  0.0442  -4.8512   0.0000   0.0696
 -13.500  -0.6406   0.03267   0.02466  -0.0997  0.2500  0.0453  -4.6626   0.0000   0.0705
 -13.000  -0.6076   0.03110   0.02300  -0.0992  0.2500  0.0470  -4.4289   0.0000   0.0634
 -12.500  -0.5651   0.02973   0.02152  -0.0997  0.2500  0.0490  -4.1764   0.0000   0.0502
 -12.000  -0.5149   0.02857   0.02029  -0.1012  0.2500  0.0512  -3.9032   0.0000   0.0297
 -11.500  -0.4592   0.02763   0.01927  -0.1032  0.2500  0.0540  -3.6221   0.0000   0.0007
 -11.000  -0.3994   0.02689   0.01846  -0.1057  0.2500  0.0573  -3.3345   0.0000  -0.0405
 -10.500  -0.3358   0.02627   0.01779  -0.1086  0.2500  0.0607  -3.0546   0.0000  -0.1017
 -10.000  -0.2700   0.02583   0.01729  -0.1117  0.2500  0.0651  -2.7810   0.0000  -0.1958
  -9.500  -0.2026   0.02552   0.01693  -0.1149  0.2500  0.0704  -2.5113   0.0000  -0.3561
  -9.000  -0.1332   0.02533   0.01671  -0.1183  0.2500  0.0768  -2.2566   0.0000  -0.6920
  -8.500  -0.0620   0.02524   0.01660  -0.1220  0.2500  0.0847  -2.0076   0.0000  -1.8202
  -8.000   0.0099   0.02526   0.01662  -0.1257  0.2500  0.0950  -1.7752   0.0000  13.5067
  -7.500   0.0833   0.02538   0.01674  -0.1295  0.2500  0.1086  -1.5501   0.0000   1.8670
  -7.000   0.1588   0.02559   0.01699  -0.1337  0.2500  0.1285  -1.3301   0.0000   1.1208
  -6.500   0.2391   0.02593   0.01741  -0.1389  0.2500  0.1622  -1.1238   0.0000   0.8469
  -6.000   0.3417   0.02656   0.01832  -0.1484  0.2500  0.2500  -0.9028   0.0000   0.6938
  -5.500   0.4033   0.02699   0.01864  -0.1495  0.2500  0.2500  -0.8445   0.0000   0.6271
  -5.000   0.4641   0.02744   0.01899  -0.1504  0.2500  0.2500  -0.9084   0.0000   0.5782
  -4.500   0.5243   0.02790   0.01939  -0.1513  0.2500  0.2500  -0.9752   0.0000   0.5408
  -4.000   0.5837   0.02839   0.01983  -0.1519  0.2500  0.2500  -1.0437   0.0000   0.5111
  -3.500   0.6425   0.02890   0.02030  -0.1524  0.2500  0.2500  -1.1146   0.0000   0.4869
  -3.000   0.7006   0.02944   0.02081  -0.1529  0.2500  0.2500  -1.1860   0.0000   0.4668
  -2.500   0.7580   0.03000   0.02136  -0.1531  0.2500  0.2500  -1.2577   0.0000   0.4497
  -2.000   0.8147   0.03058   0.02194  -0.1533  0.2500  0.2500  -1.3349   0.0000   0.4350
  -1.500   0.8706   0.03119   0.02256  -0.1533  0.2500  0.2500  -1.4137   0.0000   0.4221
  -1.000   0.9258   0.03183   0.02322  -0.1532  0.2500  0.2500  -1.4928   0.0000   0.4107
  -0.500   0.9800   0.03251   0.02394  -0.1530  0.2500  0.2500  -1.5746   0.0000   0.4006
   0.000   1.0333   0.03323   0.02470  -0.1526  0.2500  0.2500  -1.6611   0.0000   0.3914
   0.500   1.0860   0.03398   0.02550  -0.1520  0.2500  0.2500  -1.7479   0.0000   0.3830
   1.000   1.1377   0.03476   0.02635  -0.1514  0.2500  0.2500  -1.8347   0.0000   0.3754
   1.500   1.1886   0.03557   0.02723  -0.1506  0.2500  0.2500  -1.9246   0.0000   0.3683
   2.000   1.2385   0.03641   0.02817  -0.1496  0.2500  0.2500  -2.0207   0.0000   0.3617
   2.500   1.2875   0.03731   0.02916  -0.1486  0.2500  0.2500  -2.1192   0.0000   0.3555
   3.000   1.3350   0.03828   0.03024  -0.1473  0.2500  0.2500  -2.2170   0.0000   0.3497
   3.500   1.3812   0.03932   0.03139  -0.1458  0.2500  0.2500  -2.3158   0.0000   0.3442
   4.000   1.4261   0.04044   0.03262  -0.1442  0.2465  0.2500  -2.4187   0.0000   0.3390
   4.500   1.4667   0.04180   0.03401  -0.1421  0.2388  0.2500  -2.5234   0.0000   0.3339
   5.000   1.5084   0.04311   0.03543  -0.1401  0.2323  0.2500  -2.6355   0.0000   0.3291
   5.500   1.5455   0.04472   0.03710  -0.1377  0.2248  0.2500  -2.7484   0.0000   0.3244
   6.000   1.5833   0.04630   0.03879  -0.1353  0.2178  0.2500  -2.8670   0.0000   0.3199
   6.500   1.6165   0.04820   0.04077  -0.1325  0.2104  0.2500  -2.9856   0.0000   0.3155
   7.000   1.6502   0.05008   0.04277  -0.1299  0.2036  0.2500  -3.1143   0.0000   0.3113
   7.500   1.6784   0.05239   0.04516  -0.1267  0.1964  0.2500  -3.2357   0.0000   0.3072
   8.000   1.7077   0.05466   0.04758  -0.1239  0.1897  0.2500  -3.3776   0.0000   0.3032
   8.500   1.7302   0.05752   0.05053  -0.1206  0.1826  0.2500  -3.5121   0.0000   0.2993
   9.000   1.7546   0.06032   0.05349  -0.1177  0.1753  0.2500  -3.6591   0.0000   0.2957
   9.500   1.7716   0.06380   0.05709  -0.1145  0.1688  0.2500  -3.8024   0.0000   0.2921
  10.000   1.7889   0.06740   0.06085  -0.1118  0.1613  0.2500  -3.9581   0.0000   0.2888
  10.500   1.8013   0.07156   0.06516  -0.1092  0.1539  0.2500  -4.1030   0.0000   0.2858
  11.000   1.8078   0.07644   0.07017  -0.1069  0.1472  0.2500  -4.2328   0.0000   0.2830
  11.500   1.8167   0.08115   0.07507  -0.1052  0.1405  0.2500  -4.3701   0.0000   0.2805
  12.000   1.8181   0.08679   0.08087  -0.1040  0.1339  0.2500  -4.4954   0.0000   0.2785
  12.500   1.8159   0.09295   0.08719  -0.1035  0.1272  0.2500  -4.6123   0.0000   0.2769
  13.000   1.8142   0.09916   0.09359  -0.1038  0.1207  0.2500  -4.7278   0.0000   0.2757
  13.500   1.8063   0.10621   0.10081  -0.1050  0.1144  0.2500  -4.8244   0.0000   0.2751
  14.000   1.7949   0.11382   0.10858  -0.1073  0.1080  0.2500  -4.9041   0.0000   0.2751
  14.500   1.7863   0.12115   0.11610  -0.1101  0.1020  0.2500  -4.9883   0.0000   0.2754
  15.000   1.7744   0.12899   0.12411  -0.1138  0.0967  0.2500  -5.0547   0.0000   0.2763
  15.500   1.7594   0.13730   0.13257  -0.1186  0.0914  0.2500  -5.1051   0.0000   0.2778
  16.000   1.7493   0.14493   0.14037  -0.1233  0.0860  0.2500  -5.1712   0.0000   0.2792
  16.500   1.7367   0.15295   0.14855  -0.1289  0.0809  0.2500  -5.2206   0.0000   0.2812
  17.000   1.7244   0.16096   0.15668  -0.1349  0.0759  0.2500  -5.2647   0.0000   0.2834
  17.500   1.7134   0.16880   0.16464  -0.1412  0.0711  0.2500  -5.3099   0.0000   0.2857
  18.000   1.7064   0.17599   0.17196  -0.1472  0.0665  0.2500  -5.3721   0.0000   0.2878
  18.500   1.6997   0.18313   0.17921  -0.1535  0.0622  0.2500  -5.4345   0.0000   0.2900
  19.000   1.6933   0.19019   0.18637  -0.1600  0.0582  0.2500  -5.4944   0.0000   0.2923
  19.500   1.6889   0.19688   0.19316  -0.1664  0.0543  0.2500  -5.5606   0.0000   0.2944
  20.000   1.6863   0.20320   0.19959  -0.1726  0.0508  0.2500  -5.6329   0.0000   0.2963
  20.500   1.6838   0.20945   0.20593  -0.1790  0.0475  0.2500  -5.7019   0.0000   0.2983
  21.000   1.6816   0.21562   0.21217  -0.1855  0.0445  0.2500  -5.7687   0.0000   0.3003
  21.500   1.6812   0.22143   0.21810  -0.1918  0.0416  0.2500  -5.8418   0.0000   0.3020
  22.000   1.6802   0.22725   0.22400  -0.1983  0.0391  0.2500  -5.9146   0.0000   0.3039
  22.500   1.6800   0.23285   0.22969  -0.2047  0.0366  0.2500  -5.9963   0.0000   0.3056
  23.000   1.6809   0.23817   0.23511  -0.2109  0.0345  0.2500  -6.0824   0.0000   0.3071
  23.500   1.6812   0.24354   0.24052  -0.2174  0.0325  0.2500  -6.1616   0.0000   0.3087
  24.000   1.6817   0.24879   0.24591  -0.2238  0.0305  0.2500  -6.2369   0.0000   0.3103
  24.500   1.6840   0.25352   0.25067  -0.2298  0.0289  0.2500  -6.3295   0.0000   0.3115
  25.000   1.6832   0.25888   0.25617  -0.2366  0.0272  0.2500  -6.3846   0.0000   0.3133


