xflr5 v6.47

 Calculated polar for: NACA24018_theta30_Ku4.5_Kl0.5_d0.28_delta9.02

 1 1 Reynolds number fixed          Mach number fixed         

 xtrf =   0.250 (top)        0.250 (bottom)
 Mach =   0.000     Re =     1.750 e 6     Ncrit =   5.000

  alpha     CL        CD       CDp       Cm    Top Xtr Bot Xtr   Cpmin    Chinge    XCp    
 ------- -------- --------- --------- -------- ------- ------- -------- --------- ---------
 -15.000  -0.4209   0.03520   0.02927  -0.1447  0.2500  0.0375  -4.4550   0.0000  -0.1318
 -14.500  -0.3484   0.03527   0.02931  -0.1491  0.2500  0.0395  -4.1027   0.0000  -0.2208
 -14.000  -0.2785   0.03551   0.02951  -0.1528  0.2500  0.0412  -3.7673   0.0000  -0.3479
 -13.500  -0.2058   0.03586   0.02984  -0.1569  0.2500  0.0438  -3.4338   0.0000  -0.5744
 -13.000  -0.1343   0.03632   0.03026  -0.1606  0.2500  0.0464  -3.1142   0.0000  -1.0334
 -12.500  -0.0620   0.03687   0.03080  -0.1643  0.2500  0.0495  -2.8033   0.0000  -2.5756
 -12.000   0.0094   0.03751   0.03141  -0.1678  0.2500  0.0527  -2.5075   0.0000  19.2550
 -11.500   0.0802   0.03822   0.03210  -0.1711  0.2500  0.0565  -2.2467   0.0000   2.4978
 -11.000   0.1520   0.03902   0.03289  -0.1745  0.2500  0.0614  -1.9928   0.0000   1.4527
 -10.500   0.2229   0.03987   0.03375  -0.1777  0.2500  0.0671  -1.7500   0.0000   1.0806
 -10.000   0.2933   0.04078   0.03466  -0.1807  0.2500  0.0739  -1.5176   0.0000   0.8889
  -9.500   0.3639   0.04176   0.03565  -0.1837  0.2500  0.0823  -1.3047   0.0000   0.7710
  -9.000   0.4359   0.04284   0.03675  -0.1869  0.2500  0.0932  -1.1022   0.0000   0.6905
  -8.500   0.5063   0.04395   0.03788  -0.1898  0.2500  0.1064  -0.9213   0.0000   0.6334
  -8.000   0.5786   0.04518   0.03915  -0.1929  0.2500  0.1254  -0.9085   0.0000   0.5896
  -7.500   0.6532   0.04657   0.04060  -0.1964  0.2500  0.1535  -0.9456   0.0000   0.5549
  -7.000   0.7382   0.04841   0.04256  -0.2018  0.2500  0.2042  -1.0313   0.0000   0.5259
  -6.500   0.8161   0.05010   0.04432  -0.2057  0.2500  0.2500  -1.1135   0.0000   0.5033
  -6.000   0.8711   0.05095   0.04516  -0.2057  0.2500  0.2500  -1.1825   0.0000   0.4862
  -5.500   0.9256   0.05181   0.04599  -0.2055  0.2500  0.2500  -1.2538   0.0000   0.4710
  -5.000   0.9797   0.05266   0.04683  -0.2052  0.2500  0.2500  -1.3275   0.0000   0.4576
  -4.500   1.0334   0.05352   0.04768  -0.2048  0.2500  0.2500  -1.4036   0.0000   0.4455
  -4.000   1.0867   0.05438   0.04854  -0.2044  0.2500  0.2500  -1.4821   0.0000   0.4345
  -3.500   1.1396   0.05524   0.04941  -0.2039  0.2500  0.2500  -1.5612   0.0000   0.4245
  -3.000   1.1919   0.05610   0.05028  -0.2033  0.2500  0.2500  -1.6423   0.0000   0.4154
  -2.500   1.2435   0.05694   0.05114  -0.2026  0.2500  0.2500  -1.7280   0.0000   0.4069
  -2.000   1.2943   0.05778   0.05200  -0.2017  0.2500  0.2500  -1.8157   0.0000   0.3991
  -1.500   1.3445   0.05862   0.05287  -0.2007  0.2500  0.2500  -1.9080   0.0000   0.3918
  -1.000   1.3937   0.05948   0.05373  -0.1996  0.2442  0.2500  -2.0004   0.0000   0.3850
  -0.500   1.4416   0.06036   0.05457  -0.1983  0.2358  0.2500  -2.0925   0.0000   0.3786
   0.000   1.4892   0.06125   0.05547  -0.1969  0.2286  0.2500  -2.1905   0.0000   0.3725
   0.500   1.5354   0.06219   0.05637  -0.1954  0.2196  0.2500  -2.2914   0.0000   0.3667
   1.000   1.5811   0.06318   0.05738  -0.1937  0.2143  0.2500  -2.3933   0.0000   0.3612
   1.500   1.6243   0.06428   0.05844  -0.1918  0.2052  0.2500  -2.4977   0.0000   0.3560
   2.000   1.6678   0.06537   0.05956  -0.1898  0.1995  0.2500  -2.6083   0.0000   0.3509
   2.500   1.7096   0.06650   0.06068  -0.1877  0.1915  0.2500  -2.7198   0.0000   0.3460
   3.000   1.7515   0.06762   0.06182  -0.1856  0.1854  0.2500  -2.8367   0.0000   0.3414
   3.500   1.7910   0.06883   0.06301  -0.1831  0.1767  0.2500  -2.9603   0.0000   0.3368
   4.000   1.8304   0.07004   0.06424  -0.1807  0.1699  0.2500  -3.0884   0.0000   0.3324
   4.500   1.8672   0.07139   0.06559  -0.1780  0.1620  0.2500  -3.2238   0.0000   0.3281
   5.000   1.9001   0.07303   0.06724  -0.1748  0.1536  0.2500  -3.3635   0.0000   0.3238
   5.500   1.9336   0.07460   0.06883  -0.1718  0.1462  0.2500  -3.5145   0.0000   0.3197
   6.000   1.9646   0.07632   0.07055  -0.1686  0.1367  0.2500  -3.6805   0.0000   0.3156
   6.500   1.9927   0.07828   0.07250  -0.1651  0.1279  0.2500  -3.8458   0.0000   0.3117
   7.000   2.0193   0.08038   0.07464  -0.1615  0.1213  0.2500  -4.0140   0.0000   0.3077
   7.500   2.0445   0.08253   0.07682  -0.1580  0.1129  0.2500  -4.1955   0.0000   0.3039
   8.000   2.0641   0.08520   0.07950  -0.1540  0.1048  0.2500  -4.3756   0.0000   0.3001
   8.500   2.0830   0.08790   0.08223  -0.1502  0.0966  0.2500  -4.5568   0.0000   0.2964
   9.000   2.0969   0.09110   0.08546  -0.1462  0.0888  0.2500  -4.7349   0.0000   0.2928
   9.500   2.1085   0.09451   0.08892  -0.1424  0.0820  0.2500  -4.9155   0.0000   0.2893
  10.000   2.1181   0.09815   0.09261  -0.1388  0.0754  0.2500  -5.0936   0.0000   0.2860
  10.500   2.1235   0.10224   0.09677  -0.1355  0.0693  0.2500  -5.2692   0.0000   0.2829
  11.000   2.1271   0.10656   0.10117  -0.1327  0.0638  0.2500  -5.4411   0.0000   0.2800
  11.500   2.1269   0.11134   0.10604  -0.1304  0.0589  0.2500  -5.5999   0.0000   0.2775
  12.000   2.1241   0.11642   0.11121  -0.1289  0.0544  0.2500  -5.7487   0.0000   0.2752
  12.500   2.1213   0.12153   0.11643  -0.1280  0.0504  0.2500  -5.8952   0.0000   0.2733
  13.000   2.1150   0.12707   0.12208  -0.1280  0.0466  0.2500  -6.0261   0.0000   0.2718
  13.500   2.1048   0.13306   0.12820  -0.1288  0.0432  0.2500  -6.1392   0.0000   0.2707
  14.000   2.0941   0.13918   0.13445  -0.1305  0.0403  0.2500  -6.2459   0.0000   0.2700
  14.500   2.0828   0.14542   0.14084  -0.1330  0.0381  0.2500  -6.3451   0.0000   0.2697
  15.000   2.0682   0.15212   0.14768  -0.1364  0.0359  0.2500  -6.4249   0.0000   0.2698
  15.500   2.0537   0.15882   0.15453  -0.1404  0.0341  0.2500  -6.4997   0.0000   0.2703
  16.000   2.0367   0.16586   0.16172  -0.1453  0.0322  0.2500  -6.5569   0.0000   0.2712
  16.500   2.0210   0.17270   0.16871  -0.1504  0.0306  0.2500  -6.6215   0.0000   0.2722
  17.000   2.0038   0.17975   0.17591  -0.1562  0.0290  0.2500  -6.6737   0.0000   0.2735
  17.500   1.9879   0.18659   0.18287  -0.1621  0.0276  0.2500  -6.7267   0.0000   0.2750
  18.000   1.9738   0.19318   0.18960  -0.1682  0.0263  0.2500  -6.7833   0.0000   0.2764
  18.500   1.9580   0.19999   0.19653  -0.1748  0.0248  0.2500  -6.8243   0.0000   0.2782
  19.000   1.9472   0.20602   0.20268  -0.1808  0.0236  0.2500  -6.8886   0.0000   0.2795
  19.500   1.9354   0.21217   0.20893  -0.1872  0.0222  0.2500  -6.9416   0.0000   0.2811
  20.000   1.9261   0.21785   0.21472  -0.1934  0.0211  0.2500  -7.0118   0.0000   0.2824
  20.500   1.9194   0.22306   0.22003  -0.1992  0.0198  0.2500  -7.0998   0.0000   0.2834
  21.000   1.9097   0.22871   0.22576  -0.2057  0.0188  0.2500  -7.1621   0.0000   0.2850
  21.500   1.9027   0.23385   0.23101  -0.2119  0.0178  0.2500  -7.2394   0.0000   0.2862
  22.000   1.8939   0.23921   0.23646  -0.2185  0.0168  0.2500  -7.3043   0.0000   0.2877
  22.500   1.8876   0.24406   0.24140  -0.2246  0.0159  0.2500  -7.3852   0.0000   0.2888
  23.000   1.8822   0.24866   0.24608  -0.2306  0.0149  0.2500  -7.4700   0.0000   0.2898
  23.500   1.8734   0.25379   0.25129  -0.2375  0.0141  0.2500  -7.5209   0.0000   0.2915
  24.000   1.8680   0.25824   0.25583  -0.2436  0.0134  0.2500  -7.5973   0.0000   0.2925


