xflr5 v6.47

 Calculated polar for: NACA24018_theta30_Ku4.5_Kl0.5_d0.14_delta3.44

 1 1 Reynolds number fixed          Mach number fixed         

 xtrf =   0.250 (top)        0.250 (bottom)
 Mach =   0.000     Re =     2.500 e 6     Ncrit =   5.000

  alpha     CL        CD       CDp       Cm    Top Xtr Bot Xtr   Cpmin    Chinge    XCp    
 ------- -------- --------- --------- -------- ------- ------- -------- --------- ---------
 -15.000  -0.8878   0.02094   0.01449  -0.1121  0.2500  0.0259  -6.2588   0.0000   0.0996
 -14.500  -0.8751   0.01991   0.01342  -0.1067  0.2500  0.0264  -6.0349   0.0000   0.1050
 -14.000  -0.8638   0.01898   0.01243  -0.1007  0.2500  0.0268  -5.8232   0.0000   0.1113
 -13.500  -0.8309   0.01806   0.01148  -0.0983  0.2500  0.0279  -5.5452   0.0000   0.1103
 -13.000  -0.7873   0.01729   0.01069  -0.0975  0.2500  0.0289  -5.2362   0.0000   0.1052
 -12.500  -0.7377   0.01665   0.01001  -0.0974  0.2500  0.0298  -4.9203   0.0000   0.0973
 -12.000  -0.6839   0.01607   0.00940  -0.0980  0.2500  0.0310  -4.6056   0.0000   0.0860
 -11.500  -0.6271   0.01556   0.00886  -0.0991  0.2500  0.0325  -4.2895   0.0000   0.0713
 -11.000  -0.5679   0.01515   0.00842  -0.1004  0.2500  0.0339  -3.9747   0.0000   0.0523
 -10.500  -0.5065   0.01474   0.00801  -0.1020  0.2500  0.0360  -3.6634   0.0000   0.0270
 -10.000  -0.4443   0.01445   0.00769  -0.1037  0.2500  0.0377  -3.3586   0.0000  -0.0059
  -9.500  -0.3802   0.01416   0.00740  -0.1057  0.2500  0.0405  -3.0608   0.0000  -0.0521
  -9.000  -0.3159   0.01394   0.00717  -0.1077  0.2500  0.0430  -2.7823   0.0000  -0.1172
  -8.500  -0.2509   0.01376   0.00699  -0.1097  0.2500  0.0462  -2.5164   0.0000  -0.2176
  -8.000  -0.1850   0.01360   0.00684  -0.1119  0.2500  0.0501  -2.2639   0.0000  -0.3920
  -7.500  -0.1188   0.01349   0.00674  -0.1141  0.2500  0.0544  -2.0198   0.0000  -0.7619
  -7.000  -0.0524   0.01342   0.00667  -0.1163  0.2500  0.0598  -1.7903   0.0000  -2.0744
  -6.500   0.0142   0.01337   0.00664  -0.1185  0.2500  0.0663  -1.5731   0.0000   8.9258
  -6.000   0.0808   0.01335   0.00665  -0.1207  0.2500  0.0737  -1.3707   0.0000   1.7956
  -5.500   0.1477   0.01336   0.00668  -0.1229  0.2500  0.0836  -1.1847   0.0000   1.1070
  -5.000   0.2154   0.01339   0.00675  -0.1252  0.2500  0.0972  -1.0075   0.0000   0.8458
  -4.500   0.2833   0.01344   0.00686  -0.1276  0.2500  0.1147  -0.8416   0.0000   0.7093
  -4.000   0.3540   0.01350   0.00702  -0.1306  0.2500  0.1443  -0.8698   0.0000   0.6242
  -3.500   0.4284   0.01359   0.00724  -0.1343  0.2500  0.1929  -0.9430   0.0000   0.5665
  -3.000   0.5048   0.01372   0.00753  -0.1384  0.2500  0.2500  -1.0247   0.0000   0.5255
  -2.500   0.5652   0.01390   0.00769  -0.1391  0.2500  0.2500  -1.0962   0.0000   0.4962
  -2.000   0.6251   0.01410   0.00788  -0.1397  0.2500  0.2500  -1.1683   0.0000   0.4725
  -1.500   0.6845   0.01431   0.00808  -0.1402  0.2500  0.2500  -1.2419   0.0000   0.4529
  -1.000   0.7435   0.01453   0.00830  -0.1406  0.2500  0.2500  -1.3205   0.0000   0.4363
  -0.500   0.8021   0.01476   0.00854  -0.1410  0.2500  0.2500  -1.4015   0.0000   0.4222
   0.000   0.8602   0.01501   0.00880  -0.1413  0.2500  0.2500  -1.4834   0.0000   0.4099
   0.500   0.9179   0.01527   0.00907  -0.1414  0.2494  0.2500  -1.5695   0.0000   0.3990
   1.000   0.9744   0.01558   0.00936  -0.1414  0.2414  0.2500  -1.6558   0.0000   0.3894
   1.500   1.0304   0.01591   0.00967  -0.1413  0.2339  0.2500  -1.7454   0.0000   0.3808
   2.000   1.0856   0.01627   0.01000  -0.1411  0.2267  0.2500  -1.8408   0.0000   0.3729
   2.500   1.1404   0.01663   0.01036  -0.1408  0.2203  0.2500  -1.9370   0.0000   0.3657
   3.000   1.1942   0.01704   0.01076  -0.1403  0.2131  0.2500  -2.0360   0.0000   0.3591
   3.500   1.2473   0.01747   0.01118  -0.1397  0.2063  0.2500  -2.1374   0.0000   0.3529
   4.000   1.2994   0.01794   0.01164  -0.1390  0.1990  0.2500  -2.2426   0.0000   0.3471
   4.500   1.3509   0.01842   0.01212  -0.1381  0.1929  0.2500  -2.3546   0.0000   0.3417
   5.000   1.4010   0.01896   0.01265  -0.1371  0.1859  0.2500  -2.4708   0.0000   0.3366
   5.500   1.4494   0.01955   0.01326  -0.1357  0.1791  0.2500  -2.5864   0.0000   0.3316
   6.000   1.4951   0.02027   0.01396  -0.1339  0.1699  0.2500  -2.7051   0.0000   0.3268
   6.500   1.5425   0.02091   0.01463  -0.1325  0.1652  0.2500  -2.8379   0.0000   0.3223
   7.000   1.5869   0.02170   0.01540  -0.1305  0.1572  0.2500  -2.9681   0.0000   0.3179
   7.500   1.6293   0.02257   0.01627  -0.1283  0.1484  0.2500  -3.0998   0.0000   0.3136
   8.000   1.6702   0.02351   0.01723  -0.1259  0.1416  0.2500  -3.2500   0.0000   0.3094
   8.500   1.7086   0.02459   0.01831  -0.1232  0.1331  0.2500  -3.4010   0.0000   0.3052
   9.000   1.7447   0.02580   0.01952  -0.1202  0.1245  0.2500  -3.5644   0.0000   0.3011
   9.500   1.7785   0.02713   0.02087  -0.1170  0.1171  0.2500  -3.7308   0.0000   0.2971
  10.000   1.8096   0.02866   0.02240  -0.1136  0.1084  0.2500  -3.9076   0.0000   0.2931
  10.500   1.8394   0.03030   0.02407  -0.1101  0.1014  0.2500  -4.0926   0.0000   0.2892
  11.000   1.8639   0.03231   0.02610  -0.1061  0.0934  0.2500  -4.2722   0.0000   0.2853
  11.500   1.8862   0.03454   0.02835  -0.1021  0.0866  0.2500  -4.4554   0.0000   0.2815
  12.000   1.9042   0.03720   0.03105  -0.0980  0.0798  0.2500  -4.6296   0.0000   0.2777
  13.000   1.9301   0.04377   0.03773  -0.0904  0.0672  0.2500  -4.9873   0.0000   0.2708
  13.500   1.9400   0.04760   0.04164  -0.0871  0.0623  0.2500  -5.1619   0.0000   0.2677
  14.000   1.9451   0.05209   0.04622  -0.0843  0.0579  0.2500  -5.3226   0.0000   0.2649
  14.500   1.9432   0.05749   0.05171  -0.0818  0.0533  0.2500  -5.4615   0.0000   0.2624
  15.000   1.9382   0.06348   0.05781  -0.0802  0.0498  0.2500  -5.5906   0.0000   0.2603
  15.500   1.9319   0.06990   0.06437  -0.0793  0.0470  0.2500  -5.7168   0.0000   0.2586
  16.000   1.9158   0.07771   0.07233  -0.0794  0.0443  0.2500  -5.8061   0.0000   0.2575
  16.500   1.8995   0.08577   0.08056  -0.0803  0.0421  0.2500  -5.8903   0.0000   0.2569
  17.000   1.8739   0.09522   0.09017  -0.0824  0.0398  0.2500  -5.9339   0.0000   0.2570
  17.500   1.8487   0.10479   0.09992  -0.0855  0.0380  0.2500  -5.9729   0.0000   0.2577
  18.000   1.8221   0.11469   0.10999  -0.0895  0.0362  0.2500  -6.0065   0.0000   0.2589
  18.500   1.7945   0.12482   0.12029  -0.0945  0.0346  0.2500  -6.0255   0.0000   0.2608
  19.000   1.7711   0.13443   0.13006  -0.0999  0.0331  0.2500  -6.0540   0.0000   0.2629
  19.500   1.7469   0.14427   0.14004  -0.1062  0.0314  0.2500  -6.0678   0.0000   0.2655
  20.000   1.7290   0.15325   0.14916  -0.1124  0.0300  0.2500  -6.1037   0.0000   0.2680
  20.500   1.7125   0.16197   0.15800  -0.1190  0.0284  0.2500  -6.1388   0.0000   0.2707
  21.000   1.7013   0.16993   0.16607  -0.1253  0.0269  0.2500  -6.1946   0.0000   0.2730
  21.500   1.6903   0.17789   0.17413  -0.1320  0.0253  0.2500  -6.2448   0.0000   0.2757
  22.000   1.6822   0.18539   0.18173  -0.1386  0.0240  0.2500  -6.3055   0.0000   0.2781
  22.500   1.6759   0.19259   0.18903  -0.1452  0.0229  0.2500  -6.3707   0.0000   0.2805
  23.000   1.6686   0.19993   0.19645  -0.1522  0.0217  0.2500  -6.4242   0.0000   0.2832
  23.500   1.6652   0.20658   0.20321  -0.1587  0.0208  0.2500  -6.4974   0.0000   0.2854
  24.000   1.6605   0.21343   0.21014  -0.1657  0.0197  0.2500  -6.5600   0.0000   0.2879
  24.500   1.6572   0.21995   0.21675  -0.1726  0.0188  0.2500  -6.6301   0.0000   0.2903
  25.000   1.6586   0.22555   0.22243  -0.1787  0.0180  0.2500  -6.7319   0.0000   0.2919


