xflr5 v6.47

 Calculated polar for: NACA24018_theta30_Ku4.5_Kl0.5_d0.00_delta0.00

 1 1 Reynolds number fixed          Mach number fixed         

 xtrf =   0.250 (top)        0.250 (bottom)
 Mach =   0.000     Re =     1.500 e 6     Ncrit =   5.000

  alpha     CL        CD       CDp       Cm    Top Xtr Bot Xtr   Cpmin    Chinge    XCp    
 ------- -------- --------- --------- -------- ------- ------- -------- --------- ---------
 -15.000  -1.0674   0.02281   0.01556  -0.0927  0.2500  0.0237  -6.9883   0.0000   0.1395
 -14.500  -1.0441   0.02142   0.01410  -0.0895  0.2500  0.0243  -6.7196   0.0000   0.1415
 -14.000  -1.0186   0.02023   0.01285  -0.0862  0.2500  0.0250  -6.4440   0.0000   0.1434
 -13.500  -0.9907   0.01921   0.01176  -0.0828  0.2500  0.0258  -6.1630   0.0000   0.1452
 -13.000  -0.9610   0.01833   0.01081  -0.0794  0.2500  0.0264  -5.8855   0.0000   0.1469
 -12.500  -0.9323   0.01744   0.00988  -0.0757  0.2500  0.0273  -5.6196   0.0000   0.1491
 -12.000  -0.9010   0.01669   0.00909  -0.0720  0.2500  0.0283  -5.3483   0.0000   0.1510
 -11.500  -0.8679   0.01605   0.00839  -0.0685  0.2500  0.0292  -5.0754   0.0000   0.1527
 -11.000  -0.8338   0.01545   0.00774  -0.0649  0.2500  0.0302  -4.8048   0.0000   0.1543
 -10.500  -0.7994   0.01487   0.00714  -0.0612  0.2500  0.0316  -4.5392   0.0000   0.1561
 -10.000  -0.7630   0.01438   0.00661  -0.0577  0.2500  0.0329  -4.2817   0.0000   0.1576
  -9.500  -0.7262   0.01391   0.00611  -0.0541  0.2500  0.0341  -4.0284   0.0000   0.1591
  -9.000  -0.6891   0.01346   0.00564  -0.0505  0.2500  0.0358  -3.7793   0.0000   0.1608
  -8.500  -0.6508   0.01311   0.00525  -0.0470  0.2500  0.0374  -3.5325   0.0000   0.1623
  -8.000  -0.6146   0.01278   0.00492  -0.0430  0.2500  0.0396  -3.3055   0.0000   0.1650
  -7.500  -0.5762   0.01253   0.00465  -0.0393  0.2500  0.0415  -3.0793   0.0000   0.1671
  -7.000  -0.5339   0.01223   0.00435  -0.0365  0.2500  0.0444  -2.8494   0.0000   0.1673
  -6.500  -0.4894   0.01198   0.00408  -0.0340  0.2500  0.0473  -2.6206   0.0000   0.1664
  -6.000  -0.4442   0.01172   0.00382  -0.0316  0.2500  0.0511  -2.4033   0.0000   0.1647
  -5.500  -0.3981   0.01148   0.00359  -0.0294  0.2500  0.0552  -2.1930   0.0000   0.1620
  -5.000  -0.3510   0.01126   0.00338  -0.0274  0.2500  0.0600  -1.9893   0.0000   0.1579
  -4.500  -0.3032   0.01105   0.00318  -0.0255  0.2500  0.0657  -1.7969   0.0000   0.1517
  -4.000  -0.2550   0.01086   0.00301  -0.0237  0.2500  0.0726  -1.6167   0.0000   0.1426
  -3.500  -0.2066   0.01066   0.00285  -0.0219  0.2500  0.0817  -1.4430   0.0000   0.1288
  -3.000  -0.1578   0.01048   0.00271  -0.0202  0.2500  0.0938  -1.2794   0.0000   0.1057
  -2.500  -0.1089   0.01029   0.00259  -0.0185  0.2500  0.1097  -1.1236   0.0000   0.0618
  -2.000  -0.0604   0.01009   0.00247  -0.0167  0.2500  0.1331  -0.9787   0.0000  -0.0514
  -1.500  -0.0131   0.00983   0.00235  -0.0148  0.2500  0.1727  -0.8457   0.0000  -0.9455
  -1.000   0.0307   0.00941   0.00220  -0.0122  0.2500  0.2500  -0.7905   0.0000   0.6598
  -0.500   0.0835   0.00942   0.00218  -0.0112  0.2500  0.2500  -0.8501   0.0000   0.3824
   0.000   0.1362   0.00944   0.00218  -0.0102  0.2500  0.2500  -0.9117   0.0000   0.3199
   0.500   0.1888   0.00947   0.00219  -0.0092  0.2500  0.2500  -0.9750   0.0000   0.2922
   1.000   0.2412   0.00950   0.00222  -0.0082  0.2500  0.2500  -1.0408   0.0000   0.2764
   1.500   0.2935   0.00955   0.00226  -0.0072  0.2500  0.2500  -1.1072   0.0000   0.2662
   2.000   0.3455   0.00959   0.00231  -0.0062  0.2500  0.2500  -1.1763   0.0000   0.2589
   2.500   0.3972   0.00965   0.00237  -0.0051  0.2500  0.2500  -1.2486   0.0000   0.2533
   3.000   0.4486   0.00971   0.00245  -0.0040  0.2500  0.2500  -1.3233   0.0000   0.2488
   3.500   0.4996   0.00978   0.00255  -0.0028  0.2500  0.2500  -1.3996   0.0000   0.2451
   4.000   0.5498   0.00987   0.00266  -0.0015  0.2489  0.2500  -1.4787   0.0000   0.2417
   4.500   0.5983   0.01002   0.00279   0.0001  0.2424  0.2500  -1.5572   0.0000   0.2383
   5.000   0.6461   0.01017   0.00294   0.0018  0.2357  0.2500  -1.6399   0.0000   0.2352
   5.500   0.6928   0.01034   0.00310   0.0037  0.2292  0.2500  -1.7224   0.0000   0.2322
   6.000   0.7370   0.01050   0.00326   0.0060  0.2229  0.2500  -1.8065   0.0000   0.2287
   6.500   0.7785   0.01068   0.00344   0.0089  0.2166  0.2500  -1.8938   0.0000   0.2248
   7.000   0.8200   0.01087   0.00364   0.0118  0.2102  0.2500  -1.9823   0.0000   0.2214
   7.500   0.8618   0.01113   0.00390   0.0144  0.2047  0.2500  -2.0733   0.0000   0.2183
   8.000   0.9033   0.01141   0.00420   0.0171  0.1982  0.2500  -2.1704   0.0000   0.2155
   8.500   0.9439   0.01174   0.00454   0.0198  0.1922  0.2500  -2.2694   0.0000   0.2128
   9.000   0.9841   0.01208   0.00489   0.0225  0.1862  0.2500  -2.3724   0.0000   0.2102
   9.500   1.0230   0.01246   0.00529   0.0254  0.1802  0.2500  -2.4762   0.0000   0.2077
  10.000   1.0609   0.01288   0.00573   0.0283  0.1737  0.2500  -2.5872   0.0000   0.2051
  10.500   1.0975   0.01335   0.00622   0.0312  0.1670  0.2500  -2.7052   0.0000   0.2025
  11.000   1.1317   0.01391   0.00679   0.0345  0.1601  0.2500  -2.8247   0.0000   0.1997
  11.500   1.1663   0.01447   0.00738   0.0375  0.1537  0.2500  -2.9583   0.0000   0.1972
  12.000   1.1972   0.01518   0.00811   0.0409  0.1463  0.2500  -3.0871   0.0000   0.1944
  12.500   1.2278   0.01594   0.00890   0.0441  0.1404  0.2500  -3.2168   0.0000   0.1917
  13.000   1.2570   0.01680   0.00979   0.0473  0.1345  0.2500  -3.3655   0.0000   0.1891
  13.500   1.2811   0.01793   0.01093   0.0509  0.1264  0.2500  -3.5075   0.0000   0.1861
  14.000   1.3046   0.01917   0.01219   0.0542  0.1194  0.2500  -3.6601   0.0000   0.1833
  14.500   1.3269   0.02056   0.01363   0.0573  0.1131  0.2500  -3.8179   0.0000   0.1806
  15.000   1.3442   0.02234   0.01544   0.0604  0.1062  0.2500  -3.9682   0.0000   0.1778
  15.500   1.3580   0.02448   0.01761   0.0634  0.0993  0.2500  -4.1130   0.0000   0.1750
  16.000   1.3727   0.02678   0.01997   0.0657  0.0936  0.2500  -4.2657   0.0000   0.1726
  16.500   1.3819   0.02965   0.02290   0.0678  0.0880  0.2500  -4.4061   0.0000   0.1702
  17.000   1.3851   0.03325   0.02656   0.0695  0.0822  0.2500  -4.5319   0.0000   0.1678
  17.500   1.3882   0.03716   0.03055   0.0705  0.0772  0.2500  -4.6590   0.0000   0.1659
  18.000   1.3845   0.04197   0.03545   0.0710  0.0725  0.2500  -4.7671   0.0000   0.1640
  18.500   1.3730   0.04785   0.04143   0.0709  0.0680  0.2500  -4.8499   0.0000   0.1622
  19.000   1.3604   0.05421   0.04791   0.0700  0.0644  0.2500  -4.9249   0.0000   0.1609
  19.500   1.3368   0.06208   0.05590   0.0684  0.0609  0.2500  -4.9597   0.0000   0.1596
  20.000   1.3146   0.07014   0.06410   0.0663  0.0581  0.2500  -4.9938   0.0000   0.1588
  20.500   1.2825   0.07965   0.07375   0.0634  0.0552  0.2500  -4.9845   0.0000   0.1582
  21.000   1.2560   0.08884   0.08308   0.0601  0.0528  0.2500  -4.9886   0.0000   0.1582
  21.500   1.2244   0.09892   0.09329   0.0562  0.0500  0.2500  -4.9648   0.0000   0.1585
  22.000   1.2015   0.10807   0.10256   0.0524  0.0476  0.2500  -4.9686   0.0000   0.1593
  22.500   1.1766   0.11773   0.11233   0.0480  0.0450  0.2500  -4.9554   0.0000   0.1606
  23.000   1.1610   0.12616   0.12088   0.0438  0.0429  0.2500  -4.9759   0.0000   0.1621
  23.500   1.1461   0.13461   0.12941   0.0394  0.0406  0.2500  -4.9948   0.0000   0.1640
  24.000   1.1356   0.14243   0.13733   0.0350  0.0385  0.2500  -5.0307   0.0000   0.1660
  24.500   1.1252   0.15031   0.14529   0.0304  0.0361  0.2500  -5.0610   0.0000   0.1683
  25.000   1.1183   0.15770   0.15276   0.0258  0.0342  0.2500  -5.1070   0.0000   0.1707


