xflr5 v6.47

 Calculated polar for: NACA24018_theta30_Ku4.5_Kl0.5_d0.00_delta0.00

 1 1 Reynolds number fixed          Mach number fixed         

 xtrf =   0.250 (top)        0.250 (bottom)
 Mach =   0.000     Re =     0.700 e 6     Ncrit =   5.000

  alpha     CL        CD       CDp       Cm    Top Xtr Bot Xtr   Cpmin    Chinge    XCp    
 ------- -------- --------- --------- -------- ------- ------- -------- --------- ---------
 -15.000  -0.9814   0.03001   0.02212  -0.0963  0.2500  0.0284  -6.5528   0.0000   0.1271
 -14.500  -0.9624   0.02797   0.01996  -0.0939  0.2500  0.0291  -6.3181   0.0000   0.1286
 -14.000  -0.9412   0.02619   0.01805  -0.0912  0.2500  0.0298  -6.0769   0.0000   0.1301
 -13.500  -0.9217   0.02445   0.01624  -0.0881  0.2500  0.0306  -5.8420   0.0000   0.1324
 -13.000  -0.8979   0.02305   0.01476  -0.0848  0.2500  0.0315  -5.6009   0.0000   0.1342
 -12.500  -0.8714   0.02186   0.01349  -0.0816  0.2500  0.0325  -5.3535   0.0000   0.1359
 -12.000  -0.8437   0.02080   0.01233  -0.0781  0.2500  0.0336  -5.1057   0.0000   0.1376
 -11.500  -0.8163   0.01977   0.01125  -0.0744  0.2500  0.0348  -4.8609   0.0000   0.1397
 -11.000  -0.7859   0.01892   0.01033  -0.0707  0.2500  0.0361  -4.6105   0.0000   0.1415
 -10.500  -0.7536   0.01818   0.00950  -0.0672  0.2500  0.0374  -4.3635   0.0000   0.1429
 -10.000  -0.7220   0.01742   0.00872  -0.0633  0.2500  0.0390  -4.1269   0.0000   0.1449
  -9.500  -0.6877   0.01680   0.00805  -0.0597  0.2500  0.0409  -3.8872   0.0000   0.1463
  -9.000  -0.6532   0.01621   0.00740  -0.0559  0.2500  0.0427  -3.6523   0.0000   0.1479
  -8.500  -0.6177   0.01567   0.00683  -0.0522  0.2500  0.0449  -3.4199   0.0000   0.1495
  -8.000  -0.5817   0.01520   0.00632  -0.0484  0.2500  0.0474  -3.1998   0.0000   0.1511
  -7.500  -0.5463   0.01481   0.00591  -0.0444  0.2500  0.0502  -2.9855   0.0000   0.1535
  -7.000  -0.5103   0.01448   0.00555  -0.0404  0.2500  0.0534  -2.7747   0.0000   0.1559
  -6.500  -0.4700   0.01415   0.00520  -0.0372  0.2500  0.0572  -2.5593   0.0000   0.1561
  -6.000  -0.4281   0.01381   0.00486  -0.0343  0.2500  0.0617  -2.3552   0.0000   0.1553
  -5.500  -0.3849   0.01351   0.00455  -0.0317  0.2500  0.0670  -2.1537   0.0000   0.1533
  -5.000  -0.3405   0.01322   0.00426  -0.0292  0.2500  0.0733  -1.9594   0.0000   0.1499
  -4.500  -0.2955   0.01295   0.00401  -0.0268  0.2500  0.0815  -1.7743   0.0000   0.1447
  -4.000  -0.2499   0.01269   0.00377  -0.0246  0.2500  0.0921  -1.6005   0.0000   0.1369
  -3.500  -0.2038   0.01245   0.00356  -0.0224  0.2500  0.1059  -1.4321   0.0000   0.1248
  -3.000  -0.1580   0.01218   0.00337  -0.0202  0.2500  0.1263  -1.2749   0.0000   0.1061
  -2.500  -0.1131   0.01185   0.00317  -0.0178  0.2500  0.1602  -1.1261   0.0000   0.0748
  -2.000  -0.0733   0.01127   0.00292  -0.0145  0.2500  0.2435  -0.9945   0.0000   0.0309
  -1.500  -0.0229   0.01123   0.00284  -0.0131  0.2500  0.2500  -0.8568   0.0000  -0.3657
  -1.000   0.0283   0.01124   0.00279  -0.0118  0.2500  0.2500  -0.7892   0.0000   0.6822
  -0.500   0.0794   0.01126   0.00277  -0.0105  0.2500  0.2500  -0.8473   0.0000   0.3810
   0.000   0.1305   0.01129   0.00276  -0.0092  0.2500  0.2500  -0.9076   0.0000   0.3156
   0.500   0.1814   0.01132   0.00278  -0.0079  0.2500  0.2500  -0.9691   0.0000   0.2869
   1.000   0.2321   0.01137   0.00281  -0.0066  0.2500  0.2500  -1.0335   0.0000   0.2707
   1.500   0.2826   0.01143   0.00286  -0.0053  0.2500  0.2500  -1.0984   0.0000   0.2601
   2.000   0.3327   0.01150   0.00293  -0.0039  0.2500  0.2500  -1.1657   0.0000   0.2525
   2.500   0.3826   0.01158   0.00302  -0.0025  0.2500  0.2500  -1.2355   0.0000   0.2467
   3.000   0.4319   0.01166   0.00312  -0.0010  0.2500  0.2500  -1.3082   0.0000   0.2420
   3.500   0.4808   0.01177   0.00325   0.0006  0.2500  0.2500  -1.3816   0.0000   0.2381
   4.000   0.5290   0.01188   0.00340   0.0022  0.2500  0.2500  -1.4584   0.0000   0.2345
   4.500   0.5765   0.01201   0.00357   0.0040  0.2500  0.2500  -1.5353   0.0000   0.2313
   5.000   0.6229   0.01215   0.00375   0.0060  0.2500  0.2500  -1.6152   0.0000   0.2282
   5.500   0.6663   0.01229   0.00395   0.0085  0.2500  0.2500  -1.6937   0.0000   0.2244
   6.000   0.7073   0.01249   0.00417   0.0115  0.2465  0.2500  -1.7727   0.0000   0.2204
   6.500   0.7486   0.01271   0.00442   0.0143  0.2402  0.2500  -1.8586   0.0000   0.2170
   7.000   0.7890   0.01302   0.00474   0.0171  0.2335  0.2500  -1.9450   0.0000   0.2138
   7.500   0.8300   0.01334   0.00509   0.0198  0.2273  0.2500  -2.0337   0.0000   0.2110
   8.000   0.8692   0.01373   0.00549   0.0227  0.2205  0.2500  -2.1259   0.0000   0.2081
   8.500   0.9091   0.01410   0.00592   0.0254  0.2150  0.2500  -2.2230   0.0000   0.2057
   9.000   0.9469   0.01456   0.00639   0.0283  0.2084  0.2500  -2.3205   0.0000   0.2030
   9.500   0.9846   0.01502   0.00691   0.0311  0.2025  0.2500  -2.4215   0.0000   0.2006
  10.000   1.0201   0.01557   0.00749   0.0341  0.1962  0.2500  -2.5235   0.0000   0.1980
  10.500   1.0555   0.01614   0.00812   0.0370  0.1904  0.2500  -2.6380   0.0000   0.1957
  11.000   1.0880   0.01685   0.00886   0.0401  0.1840  0.2500  -2.7494   0.0000   0.1930
  11.500   1.1205   0.01758   0.00966   0.0430  0.1776  0.2500  -2.8750   0.0000   0.1907
  12.000   1.1487   0.01853   0.01064   0.0463  0.1709  0.2500  -2.9970   0.0000   0.1879
  12.500   1.1791   0.01944   0.01164   0.0491  0.1651  0.2500  -3.1238   0.0000   0.1857
  13.000   1.2038   0.02068   0.01291   0.0522  0.1579  0.2500  -3.2519   0.0000   0.1830
  13.500   1.2285   0.02201   0.01432   0.0550  0.1513  0.2500  -3.3918   0.0000   0.1806
  14.000   1.2506   0.02357   0.01595   0.0578  0.1459  0.2500  -3.5303   0.0000   0.1782
  14.500   1.2684   0.02551   0.01795   0.0604  0.1390  0.2500  -3.6709   0.0000   0.1757
  15.000   1.2857   0.02765   0.02017   0.0627  0.1322  0.2500  -3.8135   0.0000   0.1735
  15.500   1.2972   0.03036   0.02296   0.0648  0.1261  0.2500  -3.9461   0.0000   0.1712
  16.000   1.3071   0.03341   0.02610   0.0664  0.1197  0.2500  -4.0762   0.0000   0.1691
  16.500   1.3131   0.03703   0.02982   0.0675  0.1137  0.2500  -4.1991   0.0000   0.1672
  17.000   1.3107   0.04166   0.03454   0.0682  0.1078  0.2500  -4.2984   0.0000   0.1652
  17.500   1.3090   0.04655   0.03955   0.0683  0.1021  0.2500  -4.4000   0.0000   0.1638
  18.000   1.2985   0.05262   0.04574   0.0677  0.0972  0.2500  -4.4726   0.0000   0.1623
  18.500   1.2835   0.05948   0.05273   0.0665  0.0921  0.2500  -4.5297   0.0000   0.1612
  19.000   1.2652   0.06705   0.06044   0.0647  0.0876  0.2500  -4.5722   0.0000   0.1604
  19.500   1.2390   0.07588   0.06939   0.0621  0.0831  0.2500  -4.5826   0.0000   0.1598
  20.000   1.2176   0.08440   0.07806   0.0593  0.0789  0.2500  -4.6038   0.0000   0.1598
  20.500   1.1888   0.09416   0.08793   0.0557  0.0746  0.2500  -4.5907   0.0000   0.1601
  21.000   1.1700   0.10283   0.09673   0.0521  0.0705  0.2500  -4.6123   0.0000   0.1609
  21.500   1.1486   0.11203   0.10604   0.0481  0.0666  0.2500  -4.6166   0.0000   0.1621
  22.000   1.1318   0.12071   0.11482   0.0440  0.0626  0.2500  -4.6337   0.0000   0.1636
  22.500   1.1192   0.12891   0.12312   0.0399  0.0591  0.2500  -4.6622   0.0000   0.1654
  23.000   1.1062   0.13724   0.13153   0.0355  0.0554  0.2500  -4.6826   0.0000   0.1675
  23.500   1.1000   0.14455   0.13893   0.0314  0.0522  0.2500  -4.7296   0.0000   0.1696
  24.000   1.0912   0.15233   0.14678   0.0268  0.0490  0.2500  -4.7618   0.0000   0.1721
  24.500   1.0872   0.15939   0.15392   0.0224  0.0460  0.2500  -4.8138   0.0000   0.1746
  25.000   1.0828   0.16648   0.16108   0.0178  0.0433  0.2500  -4.8607   0.0000   0.1772


