xflr5 v6.47

 Calculated polar for: NACA24018_theta30_Ku4.5_Kl0.5_d0.35_delta13.38

 1 1 Reynolds number fixed          Mach number fixed         

 xtrf =   0.250 (top)        0.250 (bottom)
 Mach =   0.000     Re =     3.000 e 6     Ncrit =   5.000

  alpha     CL        CD       CDp       Cm    Top Xtr Bot Xtr   Cpmin    Chinge    XCp    
 ------- -------- --------- --------- -------- ------- ------- -------- --------- ---------
 -15.000   0.0941   0.05636   0.05173  -0.1698  0.2500  0.0491  -2.5762   0.0000   2.1480
 -14.500   0.1598   0.05802   0.05338  -0.1725  0.2500  0.0517  -2.3000   0.0000   1.3783
 -14.000   0.2273   0.05987   0.05523  -0.1754  0.2500  0.0553  -2.0491   0.0000   1.0517
 -13.500   0.2906   0.06162   0.05697  -0.1775  0.2500  0.0588  -1.8157   0.0000   0.8810
 -13.000   0.3533   0.06342   0.05876  -0.1794  0.2500  0.0628  -1.5914   0.0000   0.7719
 -12.500   0.4166   0.06532   0.06066  -0.1814  0.2500  0.0683  -1.3738   0.0000   0.6951
 -12.000   0.4815   0.06738   0.06274  -0.1835  0.2500  0.0755  -1.1610   0.0000   0.6375
 -11.500   0.5454   0.06946   0.06484  -0.1854  0.2500  0.0840  -0.9590   0.0000   0.5939
 -11.000   0.6064   0.07142   0.06681  -0.1868  0.2500  0.0928  -0.9651   0.0000   0.5600
 -10.500   0.6673   0.07344   0.06885  -0.1880  0.2500  0.1041  -0.9767   0.0000   0.5322
 -10.000   0.7299   0.07562   0.07106  -0.1895  0.2500  0.1191  -0.9884   0.0000   0.5086
  -9.500   0.7957   0.07810   0.07359  -0.1914  0.2500  0.1411  -1.0009   0.0000   0.4883
  -9.000   0.8578   0.08048   0.07602  -0.1926  0.2500  0.1653  -1.0461   0.0000   0.4712
  -8.500   0.9276   0.08352   0.07915  -0.1948  0.2500  0.2092  -1.1259   0.0000   0.4558
  -8.000   0.9953   0.08645   0.08215  -0.1966  0.2500  0.2500  -1.2083   0.0000   0.4424
  -7.500   1.0395   0.08752   0.08322  -0.1950  0.2500  0.2500  -1.2755   0.0000   0.4316
  -7.000   1.0836   0.08850   0.08420  -0.1934  0.2500  0.2500  -1.3434   0.0000   0.4217
  -6.500   1.1272   0.08940   0.08511  -0.1917  0.2500  0.2500  -1.4118   0.0000   0.4126
  -6.000   1.1703   0.09023   0.08595  -0.1899  0.2500  0.2500  -1.4848   0.0000   0.4041
  -5.500   1.2126   0.09099   0.08672  -0.1879  0.2500  0.2500  -1.5600   0.0000   0.3961
  -5.000   1.2542   0.09168   0.08744  -0.1858  0.2500  0.2500  -1.6354   0.0000   0.3886
  -4.500   1.2950   0.09235   0.08811  -0.1837  0.2456  0.2500  -1.7130   0.0000   0.3816
  -4.000   1.3344   0.09300   0.08873  -0.1814  0.2380  0.2500  -1.7949   0.0000   0.3750
  -3.500   1.3735   0.09360   0.08932  -0.1790  0.2309  0.2500  -1.8773   0.0000   0.3687
  -3.000   1.4089   0.09420   0.08990  -0.1761  0.2220  0.2500  -1.9564   0.0000   0.3626
  -2.500   1.4446   0.09468   0.09037  -0.1734  0.2148  0.2500  -2.0380   0.0000   0.3570
  -2.000   1.4807   0.09504   0.09074  -0.1709  0.2086  0.2500  -2.1270   0.0000   0.3516
  -1.500   1.5145   0.09498   0.09066  -0.1679  0.2005  0.2500  -2.2141   0.0000   0.3463
  -1.000   1.5462   0.09462   0.09030  -0.1646  0.1926  0.2500  -2.3010   0.0000   0.3411
  -0.500   1.5774   0.09452   0.09020  -0.1613  0.1857  0.2500  -2.3954   0.0000   0.3362
   0.000   1.6060   0.09464   0.09034  -0.1578  0.1792  0.2500  -2.4901   0.0000   0.3314
   0.500   1.8062   0.10498   0.10004  -0.1920  0.1734  0.2500  -2.7880   0.0000   0.3391
   1.000   1.8440   0.10585   0.10091  -0.1897  0.1673  0.2500  -2.8990   0.0000   0.3348
   1.500   1.8802   0.10676   0.10178  -0.1873  0.1594  0.2500  -3.0202   0.0000   0.3306
   2.000   1.9155   0.10769   0.10269  -0.1847  0.1519  0.2500  -3.1454   0.0000   0.3265
   2.500   1.9494   0.10867   0.10364  -0.1821  0.1429  0.2500  -3.2764   0.0000   0.3225
   3.000   1.9795   0.10992   0.10486  -0.1791  0.1341  0.2500  -3.4128   0.0000   0.3186
   3.500   2.0090   0.11117   0.10608  -0.1760  0.1254  0.2500  -3.5586   0.0000   0.3148
   4.000   2.0380   0.11241   0.10728  -0.1730  0.1159  0.2500  -3.7141   0.0000   0.3110
   4.500   2.0667   0.11365   0.10850  -0.1701  0.1077  0.2500  -3.8835   0.0000   0.3073
   5.000   2.0932   0.11503   0.10985  -0.1670  0.0990  0.2500  -4.0611   0.0000   0.3037
   5.500   2.1138   0.11685   0.11165  -0.1634  0.0902  0.2500  -4.2321   0.0000   0.3001
   6.000   2.1353   0.11847   0.11325  -0.1601  0.0823  0.2500  -4.4223   0.0000   0.2966
   6.500   2.1546   0.12023   0.11499  -0.1566  0.0743  0.2500  -4.6145   0.0000   0.2931
   7.000   2.1692   0.12243   0.11720  -0.1530  0.0672  0.2500  -4.8040   0.0000   0.2897
   7.500   2.1851   0.12442   0.11919  -0.1497  0.0609  0.2500  -4.9995   0.0000   0.2863
   8.000   2.1959   0.12690   0.12170  -0.1463  0.0556  0.2500  -5.1824   0.0000   0.2830
   8.500   2.2061   0.12941   0.12424  -0.1430  0.0510  0.2500  -5.3655   0.0000   0.2798
   9.000   2.2140   0.13211   0.12698  -0.1400  0.0463  0.2500  -5.5426   0.0000   0.2767
   9.500   2.2180   0.13522   0.13014  -0.1372  0.0419  0.2500  -5.7081   0.0000   0.2738
  10.000   2.2210   0.13842   0.13341  -0.1348  0.0384  0.2500  -5.8733   0.0000   0.2710
  10.500   2.2225   0.14172   0.13677  -0.1329  0.0355  0.2500  -6.0431   0.0000   0.2685
  11.000   2.2198   0.14541   0.14055  -0.1314  0.0328  0.2500  -6.2032   0.0000   0.2661
  11.500   2.2179   0.14897   0.14419  -0.1304  0.0306  0.2500  -6.3715   0.0000   0.2639
  12.000   2.2130   0.15279   0.14810  -0.1300  0.0283  0.2500  -6.5261   0.0000   0.2620
  12.500   2.2035   0.15707   0.15249  -0.1304  0.0260  0.2500  -6.6600   0.0000   0.2605
  13.000   2.1949   0.16122   0.15675  -0.1313  0.0242  0.2500  -6.7949   0.0000   0.2591
  13.500   2.1832   0.16569   0.16133  -0.1331  0.0225  0.2500  -6.9127   0.0000   0.2582
  14.000   2.1721   0.17009   0.16586  -0.1352  0.0214  0.2500  -7.0299   0.0000   0.2574
  14.500   2.1589   0.17471   0.17060  -0.1381  0.0201  0.2500  -7.1338   0.0000   0.2568
  15.000   2.1440   0.17957   0.17559  -0.1417  0.0192  0.2500  -7.2243   0.0000   0.2567
  15.500   2.1293   0.18440   0.18055  -0.1456  0.0181  0.2500  -7.3120   0.0000   0.2566
  16.000   2.1130   0.18943   0.18570  -0.1501  0.0171  0.2500  -7.3866   0.0000   0.2568
  16.500   2.0983   0.19426   0.19066  -0.1547  0.0164  0.2500  -7.4652   0.0000   0.2571
  17.000   2.0805   0.19945   0.19598  -0.1600  0.0156  0.2500  -7.5213   0.0000   0.2577
  17.500   2.0633   0.20456   0.20120  -0.1656  0.0148  0.2500  -7.5749   0.0000   0.2585
  18.000   2.0507   0.20901   0.20577  -0.1705  0.0142  0.2500  -7.6526   0.0000   0.2588
  18.500   2.0374   0.21352   0.21038  -0.1757  0.0133  0.2500  -7.7216   0.0000   0.2593
  19.000   2.0245   0.21794   0.21489  -0.1811  0.0125  0.2500  -7.7998   0.0000   0.2598


