xflr5 v6.47

 Calculated polar for: NACA24018_theta30_Ku4.5_Kl0.5_d0.10_delta2.45

 1 1 Reynolds number fixed          Mach number fixed         

 xtrf =   0.250 (top)        0.250 (bottom)
 Mach =   0.000     Re =     3.000 e 6     Ncrit =   5.000

  alpha     CL        CD       CDp       Cm    Top Xtr Bot Xtr   Cpmin    Chinge    XCp    
 ------- -------- --------- --------- -------- ------- ------- -------- --------- ---------
 -15.000  -0.9160   0.01930   0.01286  -0.1148  0.2500  0.0239  -6.4264   0.0000   0.1003
 -14.500  -0.8901   0.01836   0.01187  -0.1113  0.2500  0.0246  -6.1576   0.0000   0.1014
 -14.000  -0.8640   0.01752   0.01100  -0.1076  0.2500  0.0252  -5.8910   0.0000   0.1028
 -13.500  -0.8406   0.01674   0.01018  -0.1032  0.2500  0.0259  -5.6381   0.0000   0.1055
 -13.000  -0.8257   0.01603   0.00944  -0.0969  0.2500  0.0268  -5.4159   0.0000   0.1117
 -12.500  -0.8035   0.01538   0.00877  -0.0918  0.2500  0.0276  -5.1724   0.0000   0.1157
 -12.000  -0.7657   0.01479   0.00814  -0.0893  0.2500  0.0284  -4.8893   0.0000   0.1138
 -11.500  -0.7213   0.01425   0.00757  -0.0879  0.2500  0.0294  -4.5978   0.0000   0.1090
 -11.000  -0.6732   0.01371   0.00703  -0.0871  0.2500  0.0310  -4.3014   0.0000   0.1017
 -10.500  -0.6209   0.01328   0.00657  -0.0869  0.2500  0.0322  -4.0008   0.0000   0.0911
 -10.000  -0.5664   0.01288   0.00615  -0.0871  0.2500  0.0337  -3.7022   0.0000   0.0772
  -9.500  -0.5097   0.01251   0.00578  -0.0877  0.2500  0.0358  -3.4179   0.0000   0.0588
  -9.000  -0.4515   0.01220   0.00546  -0.0884  0.2500  0.0376  -3.1383   0.0000   0.0344
  -8.500  -0.3920   0.01191   0.00517  -0.0894  0.2500  0.0402  -2.8702   0.0000   0.0013
  -8.000  -0.3316   0.01167   0.00493  -0.0904  0.2500  0.0427  -2.6138   0.0000  -0.0450
  -7.500  -0.2705   0.01146   0.00472  -0.0916  0.2500  0.0457  -2.3638   0.0000  -0.1133
  -7.000  -0.2085   0.01126   0.00453  -0.0929  0.2500  0.0503  -2.1205   0.0000  -0.2244
  -6.500  -0.1462   0.01110   0.00439  -0.0943  0.2500  0.0549  -1.8853   0.0000  -0.4312
  -6.000  -0.0835   0.01097   0.00427  -0.0956  0.2500  0.0604  -1.6666   0.0000  -0.9510
  -5.500  -0.0208   0.01087   0.00419  -0.0970  0.2500  0.0664  -1.4689   0.0000  -4.6182
  -5.000   0.0426   0.01077   0.00413  -0.0985  0.2500  0.0752  -1.2853   0.0000   2.6435
  -4.500   0.1060   0.01070   0.00409  -0.1000  0.2500  0.0845  -1.1084   0.0000   1.2210
  -4.000   0.1698   0.01065   0.00409  -0.1015  0.2500  0.0977  -0.9438   0.0000   0.8617
  -3.500   0.2353   0.01059   0.00410  -0.1034  0.2500  0.1195  -0.8093   0.0000   0.6972
  -3.000   0.3013   0.01055   0.00415  -0.1054  0.2500  0.1466  -0.8778   0.0000   0.6040
  -2.500   0.3742   0.01045   0.00424  -0.1090  0.2500  0.2089  -0.9520   0.0000   0.5429
  -2.000   0.4428   0.01045   0.00434  -0.1115  0.2500  0.2500  -1.0251   0.0000   0.5018
  -1.500   0.5023   0.01057   0.00445  -0.1120  0.2500  0.2500  -1.0979   0.0000   0.4718
  -1.000   0.5615   0.01069   0.00456  -0.1125  0.2500  0.2500  -1.1724   0.0000   0.4480
  -0.500   0.6205   0.01083   0.00470  -0.1129  0.2500  0.2500  -1.2478   0.0000   0.4288
   0.000   0.6792   0.01097   0.00485  -0.1133  0.2500  0.2500  -1.3260   0.0000   0.4128
   0.500   0.7376   0.01113   0.00501  -0.1136  0.2500  0.2500  -1.4065   0.0000   0.3993
   1.000   0.7952   0.01132   0.00519  -0.1138  0.2446  0.2500  -1.4875   0.0000   0.3877
   1.500   0.8517   0.01157   0.00541  -0.1138  0.2356  0.2500  -1.5742   0.0000   0.3775
   2.000   0.9083   0.01179   0.00562  -0.1138  0.2311  0.2500  -1.6646   0.0000   0.3685
   2.500   0.9636   0.01208   0.00588  -0.1136  0.2226  0.2500  -1.7548   0.0000   0.3605
   3.000   1.0188   0.01235   0.00614  -0.1133  0.2166  0.2500  -1.8463   0.0000   0.3532
   3.500   1.0727   0.01268   0.00645  -0.1129  0.2084  0.2500  -1.9443   0.0000   0.3466
   4.000   1.1270   0.01297   0.00675  -0.1125  0.2043  0.2500  -2.0463   0.0000   0.3405
   4.500   1.1789   0.01337   0.00712  -0.1118  0.1949  0.2500  -2.1472   0.0000   0.3348
   5.000   1.2312   0.01372   0.00748  -0.1111  0.1897  0.2500  -2.2540   0.0000   0.3295
   5.500   1.2806   0.01418   0.00793  -0.1099  0.1823  0.2500  -2.3644   0.0000   0.3244
   6.000   1.3301   0.01462   0.00838  -0.1087  0.1765  0.2500  -2.4767   0.0000   0.3196
   6.500   1.3779   0.01514   0.00890  -0.1073  0.1685  0.2500  -2.5916   0.0000   0.3151
   7.000   1.4255   0.01567   0.00943  -0.1059  0.1624  0.2500  -2.7189   0.0000   0.3107
   7.500   1.4718   0.01625   0.01001  -0.1043  0.1553  0.2500  -2.8479   0.0000   0.3065
   8.000   1.5138   0.01699   0.01073  -0.1020  0.1464  0.2500  -2.9746   0.0000   0.3023
   8.500   1.5555   0.01775   0.01149  -0.0998  0.1383  0.2500  -3.1120   0.0000   0.2982
   9.000   1.5972   0.01852   0.01228  -0.0976  0.1314  0.2500  -3.2691   0.0000   0.2943
   9.500   1.6339   0.01949   0.01325  -0.0947  0.1235  0.2500  -3.4240   0.0000   0.2903
  10.000   1.6692   0.02058   0.01433  -0.0917  0.1147  0.2500  -3.5820   0.0000   0.2864
  10.500   1.7016   0.02181   0.01557  -0.0884  0.1066  0.2500  -3.7554   0.0000   0.2825
  11.000   1.7334   0.02310   0.01688  -0.0851  0.0997  0.2500  -3.9354   0.0000   0.2787
  11.500   1.7607   0.02469   0.01848  -0.0815  0.0922  0.2500  -4.1113   0.0000   0.2750
  12.000   1.7843   0.02657   0.02038  -0.0777  0.0845  0.2500  -4.2960   0.0000   0.2712
  12.500   1.8042   0.02877   0.02260  -0.0738  0.0772  0.2500  -4.4761   0.0000   0.2676
  13.000   1.8238   0.03115   0.02502  -0.0704  0.0716  0.2500  -4.6622   0.0000   0.2642
  13.500   1.8406   0.03388   0.02780  -0.0671  0.0663  0.2500  -4.8428   0.0000   0.2609
  14.000   1.8527   0.03714   0.03112  -0.0639  0.0612  0.2500  -5.0111   0.0000   0.2578
  14.500   1.8603   0.04095   0.03500  -0.0611  0.0564  0.2500  -5.1697   0.0000   0.2550
  15.000   1.8675   0.04507   0.03921  -0.0589  0.0527  0.2500  -5.3308   0.0000   0.2525
  15.500   1.8673   0.05013   0.04436  -0.0572  0.0490  0.2500  -5.4731   0.0000   0.2503
  16.000   1.8608   0.05611   0.05045  -0.0561  0.0453  0.2500  -5.6045   0.0000   0.2485
  16.500   1.8532   0.06258   0.05705  -0.0559  0.0426  0.2500  -5.7297   0.0000   0.2471
  17.000   1.8342   0.07061   0.06521  -0.0566  0.0398  0.2500  -5.8103   0.0000   0.2463
  17.500   1.8168   0.07879   0.07356  -0.0580  0.0381  0.2500  -5.8926   0.0000   0.2460
  18.000   1.7889   0.08849   0.08343  -0.0606  0.0363  0.2500  -5.9283   0.0000   0.2464
  18.500   1.7592   0.09866   0.09378  -0.0640  0.0348  0.2500  -5.9489   0.0000   0.2473
  19.000   1.7304   0.10885   0.10414  -0.0682  0.0334  0.2500  -5.9642   0.0000   0.2488
  19.500   1.6985   0.11963   0.11509  -0.0735  0.0318  0.2500  -5.9551   0.0000   0.2510
  20.000   1.6746   0.12939   0.12500  -0.0789  0.0305  0.2500  -5.9713   0.0000   0.2532
  20.500   1.6524   0.13898   0.13473  -0.0848  0.0293  0.2500  -5.9854   0.0000   0.2558
  21.000   1.6313   0.14850   0.14438  -0.0913  0.0278  0.2500  -5.9952   0.0000   0.2587
  21.500   1.6181   0.15690   0.15289  -0.0974  0.0267  0.2500  -6.0359   0.0000   0.2613
  22.000   1.6072   0.16493   0.16104  -0.1036  0.0254  0.2500  -6.0816   0.0000   0.2638
  22.500   1.5959   0.17302   0.16922  -0.1103  0.0241  0.2500  -6.1186   0.0000   0.2667
  23.000   1.5903   0.18023   0.17653  -0.1164  0.0232  0.2500  -6.1815   0.0000   0.2691
  23.500   1.5837   0.18763   0.18403  -0.1231  0.0221  0.2500  -6.2322   0.0000   0.2718
  24.000   1.5772   0.19501   0.19149  -0.1299  0.0209  0.2500  -6.2890   0.0000   0.2746
  24.500   1.5788   0.20096   0.19753  -0.1357  0.0200  0.2500  -6.3994   0.0000   0.2764
  25.000   1.5736   0.20807   0.20471  -0.1428  0.0188  0.2500  -6.4591   0.0000   0.2793


