xflr5 v6.47

 Calculated polar for: NACA24018_theta30_Ku4.5_Kl0.5_d0.14_delta3.44

 1 1 Reynolds number fixed          Mach number fixed         

 xtrf =   0.250 (top)        0.250 (bottom)
 Mach =   0.000     Re =     2.000 e 6     Ncrit =   5.000

  alpha     CL        CD       CDp       Cm    Top Xtr Bot Xtr   Cpmin    Chinge    XCp    
 ------- -------- --------- --------- -------- ------- ------- -------- --------- ---------
 -15.000  -0.8666   0.02227   0.01564  -0.1136  0.2500  0.0268  -6.1653   0.0000   0.0943
 -14.500  -0.8512   0.02107   0.01439  -0.1091  0.2500  0.0276  -5.9361   0.0000   0.0983
 -14.000  -0.8460   0.02002   0.01329  -0.1024  0.2500  0.0283  -5.7509   0.0000   0.1067
 -13.500  -0.8237   0.01906   0.01230  -0.0982  0.2500  0.0291  -5.5096   0.0000   0.1092
 -13.000  -0.7857   0.01825   0.01143  -0.0965  0.2500  0.0299  -5.2203   0.0000   0.1062
 -12.500  -0.7405   0.01749   0.01064  -0.0959  0.2500  0.0309  -4.9185   0.0000   0.0999
 -12.000  -0.6897   0.01683   0.00995  -0.0961  0.2500  0.0323  -4.6135   0.0000   0.0902
 -11.500  -0.6351   0.01629   0.00937  -0.0967  0.2500  0.0336  -4.3042   0.0000   0.0772
 -11.000  -0.5776   0.01578   0.00884  -0.0979  0.2500  0.0354  -3.9948   0.0000   0.0599
 -10.500  -0.5179   0.01536   0.00840  -0.0993  0.2500  0.0372  -3.6874   0.0000   0.0371
 -10.000  -0.4565   0.01499   0.00801  -0.1009  0.2500  0.0394  -3.3849   0.0000   0.0070
  -9.500  -0.3939   0.01470   0.00770  -0.1027  0.2500  0.0418  -3.0895   0.0000  -0.0338
  -9.000  -0.3299   0.01443   0.00743  -0.1046  0.2500  0.0447  -2.8111   0.0000  -0.0925
  -8.500  -0.2655   0.01422   0.00721  -0.1066  0.2500  0.0480  -2.5447   0.0000  -0.1799
  -8.000  -0.2006   0.01405   0.00704  -0.1086  0.2500  0.0516  -2.2935   0.0000  -0.3254
  -7.500  -0.1348   0.01392   0.00691  -0.1108  0.2500  0.0564  -2.0491   0.0000  -0.6177
  -7.000  -0.0686   0.01382   0.00682  -0.1129  0.2500  0.0620  -1.8182   0.0000  -1.4767
  -6.500  -0.0022   0.01376   0.00678  -0.1151  0.2500  0.0687  -1.6005   0.0000  -53.3288
  -5.500   0.1316   0.01371   0.00679  -0.1196  0.2500  0.0885  -1.2075   0.0000   1.1868
  -5.000   0.1986   0.01373   0.00685  -0.1218  0.2500  0.1016  -1.0306   0.0000   0.8792
  -4.500   0.2673   0.01377   0.00696  -0.1244  0.2500  0.1223  -0.8611   0.0000   0.7249
  -4.000   0.3394   0.01382   0.00712  -0.1277  0.2500  0.1588  -0.8603   0.0000   0.6320
  -3.500   0.4184   0.01388   0.00737  -0.1324  0.2500  0.2255  -0.9358   0.0000   0.5697
  -3.000   0.4859   0.01403   0.00758  -0.1346  0.2500  0.2500  -1.0110   0.0000   0.5286
  -2.500   0.5460   0.01422   0.00775  -0.1353  0.2500  0.2500  -1.0821   0.0000   0.4979
  -2.000   0.6057   0.01442   0.00794  -0.1359  0.2500  0.2500  -1.1538   0.0000   0.4733
  -1.500   0.6650   0.01464   0.00815  -0.1364  0.2500  0.2500  -1.2267   0.0000   0.4531
  -1.000   0.7239   0.01487   0.00838  -0.1368  0.2500  0.2500  -1.3045   0.0000   0.4361
  -0.500   0.7824   0.01511   0.00862  -0.1371  0.2500  0.2500  -1.3850   0.0000   0.4217
   0.000   0.8404   0.01536   0.00889  -0.1374  0.2500  0.2500  -1.4662   0.0000   0.4091
   0.500   0.8980   0.01563   0.00917  -0.1376  0.2500  0.2500  -1.5518   0.0000   0.3981
   1.000   0.9552   0.01591   0.00947  -0.1377  0.2497  0.2500  -1.6381   0.0000   0.3884
   1.500   1.0110   0.01625   0.00979  -0.1376  0.2418  0.2500  -1.7264   0.0000   0.3796
   2.000   1.0661   0.01661   0.01014  -0.1373  0.2343  0.2500  -1.8212   0.0000   0.3717
   2.500   1.1207   0.01700   0.01052  -0.1370  0.2277  0.2500  -1.9168   0.0000   0.3645
   3.000   1.1744   0.01742   0.01093  -0.1365  0.2206  0.2500  -2.0147   0.0000   0.3578
   3.500   1.2273   0.01786   0.01137  -0.1359  0.2138  0.2500  -2.1156   0.0000   0.3516
   4.000   1.2792   0.01834   0.01185  -0.1352  0.2066  0.2500  -2.2196   0.0000   0.3458
   4.500   1.3299   0.01886   0.01237  -0.1342  0.1997  0.2500  -2.3286   0.0000   0.3404
   5.000   1.3790   0.01944   0.01295  -0.1330  0.1933  0.2500  -2.4431   0.0000   0.3352
   5.500   1.4272   0.02006   0.01359  -0.1316  0.1868  0.2500  -2.5580   0.0000   0.3302
   6.000   1.4742   0.02073   0.01427  -0.1301  0.1793  0.2500  -2.6754   0.0000   0.3255
   6.500   1.5194   0.02150   0.01502  -0.1283  0.1707  0.2500  -2.8044   0.0000   0.3209
   7.000   1.5656   0.02220   0.01576  -0.1267  0.1660  0.2500  -2.9367   0.0000   0.3166
   7.500   1.6063   0.02316   0.01672  -0.1243  0.1573  0.2500  -3.0627   0.0000   0.3122
   8.000   1.6469   0.02414   0.01771  -0.1219  0.1495  0.2500  -3.2104   0.0000   0.3080
   8.500   1.6868   0.02517   0.01876  -0.1195  0.1421  0.2500  -3.3605   0.0000   0.3039
   9.000   1.7215   0.02646   0.02006  -0.1164  0.1337  0.2500  -3.5200   0.0000   0.2998
   9.500   1.7556   0.02782   0.02144  -0.1133  0.1257  0.2500  -3.6822   0.0000   0.2958
  10.000   1.7867   0.02937   0.02301  -0.1099  0.1180  0.2500  -3.8579   0.0000   0.2918
  10.500   1.8152   0.03112   0.02480  -0.1064  0.1100  0.2500  -4.0362   0.0000   0.2880
  11.000   1.8407   0.03311   0.02682  -0.1027  0.1029  0.2500  -4.2170   0.0000   0.2841
  11.500   1.8616   0.03550   0.02924  -0.0987  0.0950  0.2500  -4.3935   0.0000   0.2803
  12.000   1.8793   0.03826   0.03204  -0.0948  0.0880  0.2500  -4.5656   0.0000   0.2767
  12.500   1.8953   0.04131   0.03515  -0.0912  0.0817  0.2500  -4.7425   0.0000   0.2733
  13.000   1.9075   0.04481   0.03872  -0.0878  0.0757  0.2500  -4.9207   0.0000   0.2700
  13.500   1.9139   0.04903   0.04302  -0.0846  0.0698  0.2500  -5.0831   0.0000   0.2670
  14.000   1.9167   0.05383   0.04791  -0.0820  0.0648  0.2500  -5.2349   0.0000   0.2643
  14.500   1.9141   0.05940   0.05359  -0.0799  0.0602  0.2500  -5.3690   0.0000   0.2620
  15.000   1.9098   0.06544   0.05976  -0.0786  0.0563  0.2500  -5.4963   0.0000   0.2600
  15.500   1.8983   0.07257   0.06703  -0.0781  0.0526  0.2500  -5.6013   0.0000   0.2586
  16.000   1.8807   0.08066   0.07527  -0.0785  0.0495  0.2500  -5.6822   0.0000   0.2578
  16.500   1.8619   0.08917   0.08395  -0.0800  0.0472  0.2500  -5.7532   0.0000   0.2575
  17.000   1.8372   0.09860   0.09356  -0.0825  0.0448  0.2500  -5.7955   0.0000   0.2578
  17.500   1.8106   0.10847   0.10361  -0.0860  0.0428  0.2500  -5.8219   0.0000   0.2589
  18.000   1.7845   0.11838   0.11369  -0.0904  0.0407  0.2500  -5.8445   0.0000   0.2604
  18.500   1.7565   0.12865   0.12413  -0.0958  0.0388  0.2500  -5.8556   0.0000   0.2626
  19.000   1.7356   0.13799   0.13363  -0.1014  0.0369  0.2500  -5.8896   0.0000   0.2648
  19.500   1.7123   0.14779   0.14357  -0.1079  0.0350  0.2500  -5.9021   0.0000   0.2676
  20.000   1.6983   0.15622   0.15212  -0.1139  0.0333  0.2500  -5.9522   0.0000   0.2700
  20.500   1.6799   0.16534   0.16137  -0.1209  0.0315  0.2500  -5.9713   0.0000   0.2731
  21.000   1.6706   0.17309   0.16923  -0.1272  0.0300  0.2500  -6.0319   0.0000   0.2755
  21.500   1.6602   0.18104   0.17728  -0.1340  0.0282  0.2500  -6.0794   0.0000   0.2783
  22.000   1.6538   0.18832   0.18467  -0.1405  0.0267  0.2500  -6.1444   0.0000   0.2807
  22.500   1.6464   0.19578   0.19221  -0.1475  0.0251  0.2500  -6.1971   0.0000   0.2835
  23.000   1.6427   0.20258   0.19911  -0.1541  0.0238  0.2500  -6.2678   0.0000   0.2858
  23.500   1.6410   0.20899   0.20560  -0.1605  0.0225  0.2500  -6.3472   0.0000   0.2879
  24.000   1.6377   0.21562   0.21232  -0.1673  0.0214  0.2500  -6.4122   0.0000   0.2903
  24.500   1.6356   0.22198   0.21877  -0.1741  0.0204  0.2500  -6.4863   0.0000   0.2926
  25.000   1.6318   0.22863   0.22550  -0.1813  0.0194  0.2500  -6.5421   0.0000   0.2952


