xflr5 v6.47

 Calculated polar for: NACA24018_theta30_Ku4.5_Kl0.5_d0.10_delta2.45

 1 1 Reynolds number fixed          Mach number fixed         

 xtrf =   0.250 (top)        0.250 (bottom)
 Mach =   0.000     Re =     0.800 e 6     Ncrit =   5.000

  alpha     CL        CD       CDp       Cm    Top Xtr Bot Xtr   Cpmin    Chinge    XCp    
 ------- -------- --------- --------- -------- ------- ------- -------- --------- ---------
 -15.000  -0.8013   0.02848   0.02091  -0.1199  0.2500  0.0314  -5.8856   0.0000   0.0737
 -14.500  -0.7794   0.02681   0.01914  -0.1175  0.2500  0.0322  -5.6535   0.0000   0.0735
 -14.000  -0.7582   0.02524   0.01748  -0.1147  0.2500  0.0331  -5.4248   0.0000   0.0739
 -13.500  -0.7364   0.02383   0.01602  -0.1116  0.2500  0.0342  -5.1939   0.0000   0.0745
 -13.000  -0.7131   0.02262   0.01475  -0.1082  0.2500  0.0353  -4.9606   0.0000   0.0752
 -12.500  -0.6892   0.02157   0.01361  -0.1045  0.2500  0.0363  -4.7351   0.0000   0.0760
 -12.000  -0.6677   0.02055   0.01254  -0.1002  0.2500  0.0374  -4.5230   0.0000   0.0785
 -11.500  -0.6479   0.01966   0.01161  -0.0952  0.2500  0.0388  -4.3162   0.0000   0.0823
 -11.000  -0.6337   0.01892   0.01082  -0.0889  0.2500  0.0402  -4.1283   0.0000   0.0900
 -10.500  -0.6069   0.01818   0.01001  -0.0847  0.2500  0.0416  -3.9087   0.0000   0.0914
 -10.000  -0.5715   0.01744   0.00925  -0.0819  0.2500  0.0435  -3.6683   0.0000   0.0879
  -9.500  -0.5292   0.01683   0.00859  -0.0801  0.2500  0.0456  -3.4253   0.0000   0.0800
  -9.000  -0.4831   0.01623   0.00797  -0.0790  0.2500  0.0482  -3.1789   0.0000   0.0677
  -8.500  -0.4332   0.01575   0.00745  -0.0785  0.2500  0.0513  -2.9293   0.0000   0.0499
  -8.000  -0.3809   0.01527   0.00696  -0.0783  0.2500  0.0552  -2.6918   0.0000   0.0247
  -7.500  -0.3263   0.01487   0.00654  -0.0785  0.2500  0.0594  -2.4566   0.0000  -0.0113
  -7.000  -0.2702   0.01453   0.00618  -0.0789  0.2500  0.0646  -2.2247   0.0000  -0.0645
  -6.500  -0.2127   0.01422   0.00588  -0.0795  0.2500  0.0707  -1.9975   0.0000  -0.1493
  -6.000  -0.1541   0.01396   0.00562  -0.0803  0.2500  0.0787  -1.7773   0.0000  -0.3020
  -5.500  -0.0947   0.01373   0.00541  -0.0812  0.2500  0.0881  -1.5805   0.0000  -0.6513
  -5.000  -0.0342   0.01352   0.00524  -0.0823  0.2500  0.1018  -1.3938   0.0000  -2.2654
  -4.000   0.0911   0.01313   0.00503  -0.0854  0.2500  0.1541  -1.0458   0.0000   1.2149
  -3.500   0.1619   0.01279   0.00495  -0.0888  0.2500  0.2312  -0.8779   0.0000   0.8104
  -3.000   0.2238   0.01280   0.00497  -0.0900  0.2500  0.2500  -0.8268   0.0000   0.6582
  -2.500   0.2823   0.01290   0.00503  -0.0904  0.2500  0.2500  -0.8904   0.0000   0.5729
  -2.000   0.3406   0.01302   0.00511  -0.0907  0.2500  0.2500  -0.9546   0.0000   0.5170
  -1.500   0.3985   0.01316   0.00522  -0.0910  0.2500  0.2500  -1.0214   0.0000   0.4774
  -1.000   0.4561   0.01331   0.00536  -0.0912  0.2500  0.2500  -1.0924   0.0000   0.4478
  -0.500   0.5133   0.01348   0.00552  -0.0914  0.2500  0.2500  -1.1648   0.0000   0.4248
   0.000   0.5701   0.01366   0.00571  -0.0914  0.2500  0.2500  -1.2377   0.0000   0.4063
   0.500   0.6264   0.01387   0.00592  -0.0914  0.2500  0.2500  -1.3142   0.0000   0.3911
   1.000   0.6822   0.01409   0.00616  -0.0914  0.2500  0.2500  -1.3917   0.0000   0.3783
   1.500   0.7372   0.01433   0.00643  -0.0911  0.2500  0.2500  -1.4702   0.0000   0.3673
   2.000   0.7915   0.01460   0.00673  -0.0908  0.2500  0.2500  -1.5548   0.0000   0.3578
   2.500   0.8453   0.01489   0.00707  -0.0904  0.2500  0.2500  -1.6413   0.0000   0.3493
   3.000   0.8985   0.01521   0.00744  -0.0899  0.2500  0.2500  -1.7284   0.0000   0.3418
   3.500   0.9511   0.01555   0.00784  -0.0893  0.2500  0.2500  -1.8168   0.0000   0.3350
   4.000   1.0029   0.01592   0.00827  -0.0886  0.2480  0.2500  -1.9118   0.0000   0.3288
   4.500   1.0531   0.01637   0.00874  -0.0876  0.2406  0.2500  -2.0083   0.0000   0.3231
   5.000   1.1012   0.01690   0.00929  -0.0864  0.2336  0.2500  -2.1035   0.0000   0.3176
   5.500   1.1489   0.01744   0.00987  -0.0851  0.2265  0.2500  -2.2049   0.0000   0.3126
   6.000   1.1952   0.01804   0.01050  -0.0836  0.2203  0.2500  -2.3099   0.0000   0.3078
   6.500   1.2411   0.01867   0.01117  -0.0822  0.2129  0.2500  -2.4159   0.0000   0.3033
   7.000   1.2842   0.01941   0.01195  -0.0803  0.2064  0.2500  -2.5240   0.0000   0.2989
   7.500   1.3275   0.02015   0.01276  -0.0785  0.2001  0.2500  -2.6417   0.0000   0.2947
   8.000   1.3678   0.02104   0.01368  -0.0764  0.1934  0.2500  -2.7599   0.0000   0.2906
   8.500   1.4075   0.02197   0.01468  -0.0743  0.1863  0.2500  -2.8800   0.0000   0.2867
   9.000   1.4447   0.02305   0.01582  -0.0719  0.1800  0.2500  -3.0074   0.0000   0.2829
   9.500   1.4804   0.02423   0.01706  -0.0695  0.1730  0.2500  -3.1463   0.0000   0.2792
  10.000   1.5137   0.02558   0.01848  -0.0669  0.1662  0.2500  -3.2887   0.0000   0.2756
  10.500   1.5432   0.02721   0.02016  -0.0641  0.1586  0.2500  -3.4303   0.0000   0.2720
  11.000   1.5733   0.02888   0.02193  -0.0616  0.1517  0.2500  -3.5849   0.0000   0.2687
  11.500   1.5981   0.03096   0.02409  -0.0589  0.1449  0.2500  -3.7413   0.0000   0.2654
  12.000   1.6218   0.03324   0.02645  -0.0563  0.1378  0.2500  -3.8993   0.0000   0.2623
  12.500   1.6417   0.03591   0.02922  -0.0539  0.1309  0.2500  -4.0572   0.0000   0.2593
  13.000   1.6556   0.03921   0.03260  -0.0515  0.1235  0.2500  -4.2099   0.0000   0.2565
  13.500   1.6694   0.04270   0.03620  -0.0496  0.1168  0.2500  -4.3643   0.0000   0.2540
  14.000   1.6775   0.04689   0.04051  -0.0481  0.1106  0.2500  -4.5082   0.0000   0.2517
  14.500   1.6784   0.05201   0.04574  -0.0470  0.1043  0.2500  -4.6315   0.0000   0.2498
  15.000   1.6786   0.05749   0.05138  -0.0466  0.0984  0.2500  -4.7510   0.0000   0.2483
  15.500   1.6691   0.06431   0.05834  -0.0469  0.0929  0.2500  -4.8382   0.0000   0.2473
  16.000   1.6548   0.07197   0.06616  -0.0481  0.0877  0.2500  -4.9105   0.0000   0.2469
  16.500   1.6358   0.08051   0.07489  -0.0501  0.0833  0.2500  -4.9622   0.0000   0.2470
  17.000   1.6097   0.09016   0.08472  -0.0531  0.0788  0.2500  -4.9833   0.0000   0.2479
  17.500   1.5840   0.10003   0.09478  -0.0569  0.0750  0.2500  -4.9972   0.0000   0.2494
  18.000   1.5551   0.11046   0.10538  -0.0616  0.0710  0.2500  -4.9991   0.0000   0.2516
  18.500   1.5320   0.12027   0.11535  -0.0666  0.0674  0.2500  -5.0154   0.0000   0.2540
  19.000   1.5089   0.13016   0.12538  -0.0724  0.0634  0.2500  -5.0226   0.0000   0.2569
  19.500   1.4942   0.13892   0.13428  -0.0779  0.0600  0.2500  -5.0580   0.0000   0.2595
  20.000   1.4786   0.14788   0.14335  -0.0841  0.0563  0.2500  -5.0816   0.0000   0.2627
  20.500   1.4712   0.15566   0.15124  -0.0898  0.0530  0.2500  -5.1373   0.0000   0.2653
  21.000   1.4601   0.16404   0.15971  -0.0964  0.0498  0.2500  -5.1678   0.0000   0.2686
  21.500   1.4568   0.17115   0.16693  -0.1022  0.0467  0.2500  -5.2336   0.0000   0.2712
  22.000   1.4518   0.17857   0.17443  -0.1086  0.0439  0.2500  -5.2847   0.0000   0.2741
  22.500   1.4491   0.18563   0.18158  -0.1149  0.0409  0.2500  -5.3429   0.0000   0.2769
  23.000   1.4473   0.19255   0.18858  -0.1212  0.0385  0.2500  -5.4011   0.0000   0.2797
  23.500   1.4457   0.19940   0.19552  -0.1278  0.0360  0.2500  -5.4557   0.0000   0.2826
  24.000   1.4471   0.20571   0.20192  -0.1340  0.0340  0.2500  -5.5248   0.0000   0.2851
  24.500   1.4485   0.21197   0.20826  -0.1404  0.0319  0.2500  -5.5965   0.0000   0.2876
  25.000   1.4498   0.21823   0.21460  -0.1469  0.0301  0.2500  -5.6680   0.0000   0.2902


