xflr5 v6.47

 Calculated polar for: NACA24018_theta30_Ku4.5_Kl0.5_d0.17_delta4.56

 1 1 Reynolds number fixed          Mach number fixed         

 xtrf =   0.250 (top)        0.250 (bottom)
 Mach =   0.000     Re =     2.000 e 6     Ncrit =   5.000

  alpha     CL        CD       CDp       Cm    Top Xtr Bot Xtr   Cpmin    Chinge    XCp    
 ------- -------- --------- --------- -------- ------- ------- -------- --------- ---------
 -15.000  -0.8728   0.02308   0.01662  -0.1064  0.2500  0.0280  -6.1709   0.0000   0.1044
 -14.500  -0.8370   0.02199   0.01548  -0.1052  0.2500  0.0288  -5.8732   0.0000   0.1012
 -14.000  -0.7917   0.02109   0.01452  -0.1052  0.2500  0.0295  -5.5477   0.0000   0.0944
 -13.500  -0.7401   0.02026   0.01365  -0.1062  0.2500  0.0307  -5.2080   0.0000   0.0840
 -13.000  -0.6839   0.01959   0.01295  -0.1076  0.2500  0.0321  -4.8737   0.0000   0.0701
 -12.500  -0.6245   0.01905   0.01237  -0.1094  0.2500  0.0333  -4.5380   0.0000   0.0520
 -12.000  -0.5622   0.01857   0.01187  -0.1116  0.2500  0.0351  -4.2028   0.0000   0.0281
 -11.500  -0.4988   0.01822   0.01148  -0.1139  0.2500  0.0366  -3.8739   0.0000  -0.0025
 -11.000  -0.4329   0.01790   0.01115  -0.1165  0.2500  0.0391  -3.5610   0.0000  -0.0447
 -10.500  -0.3671   0.01768   0.01090  -0.1189  0.2500  0.0411  -3.2577   0.0000  -0.1017
 -10.000  -0.2998   0.01751   0.01071  -0.1216  0.2500  0.0438  -2.9602   0.0000  -0.1868
  -9.500  -0.2317   0.01739   0.01059  -0.1244  0.2500  0.0470  -2.6791   0.0000  -0.3234
  -9.000  -0.1637   0.01732   0.01052  -0.1271  0.2500  0.0505  -2.4117   0.0000  -0.5736
  -8.500  -0.0953   0.01731   0.01050  -0.1298  0.2500  0.0550  -2.1528   0.0000  -1.1857
  -8.000  -0.0266   0.01733   0.01053  -0.1325  0.2500  0.0603  -1.9062   0.0000  -4.9762
  -7.500   0.0422   0.01739   0.01060  -0.1351  0.2500  0.0663  -1.6766   0.0000   3.5840
  -7.000   0.1110   0.01749   0.01072  -0.1378  0.2500  0.0734  -1.4650   0.0000   1.5366
  -6.500   0.1802   0.01763   0.01088  -0.1404  0.2500  0.0832  -1.2712   0.0000   1.0542
  -5.500   0.3197   0.01800   0.01133  -0.1460  0.2500  0.1128  -0.9049   0.0000   0.7167
  -5.000   0.3922   0.01825   0.01166  -0.1492  0.2500  0.1383  -0.8529   0.0000   0.6372
  -4.500   0.4717   0.01856   0.01212  -0.1539  0.2500  0.1893  -0.9329   0.0000   0.5805
  -4.000   0.5528   0.01895   0.01265  -0.1589  0.2500  0.2500  -1.0156   0.0000   0.5398
  -3.500   0.6128   0.01923   0.01292  -0.1595  0.2500  0.2500  -1.0846   0.0000   0.5114
  -3.000   0.6723   0.01954   0.01320  -0.1601  0.2500  0.2500  -1.1542   0.0000   0.4880
  -2.500   0.7315   0.01985   0.01350  -0.1606  0.2500  0.2500  -1.2275   0.0000   0.4684
  -2.000   0.7902   0.02017   0.01382  -0.1610  0.2500  0.2500  -1.3044   0.0000   0.4517
  -1.500   0.8484   0.02051   0.01416  -0.1612  0.2500  0.2500  -1.3835   0.0000   0.4373
  -1.000   0.9061   0.02085   0.01451  -0.1614  0.2500  0.2500  -1.4668   0.0000   0.4246
  -0.500   0.9633   0.02121   0.01488  -0.1616  0.2500  0.2500  -1.5522   0.0000   0.4134
   0.000   1.0201   0.02157   0.01526  -0.1616  0.2500  0.2500  -1.6383   0.0000   0.4034
   0.500   1.0762   0.02196   0.01566  -0.1615  0.2474  0.2500  -1.7248   0.0000   0.3943
   1.000   1.1314   0.02238   0.01607  -0.1612  0.2405  0.2500  -1.8177   0.0000   0.3861
   1.500   1.1854   0.02284   0.01651  -0.1608  0.2325  0.2500  -1.9117   0.0000   0.3785
   2.000   1.2392   0.02331   0.01698  -0.1603  0.2261  0.2500  -2.0092   0.0000   0.3716
   2.500   1.2916   0.02384   0.01748  -0.1596  0.2178  0.2500  -2.1115   0.0000   0.3651
   3.000   1.3439   0.02436   0.01802  -0.1589  0.2122  0.2500  -2.2151   0.0000   0.3590
   3.500   1.3943   0.02496   0.01859  -0.1579  0.2042  0.2500  -2.3189   0.0000   0.3533
   4.000   1.4442   0.02559   0.01923  -0.1567  0.1979  0.2500  -2.4303   0.0000   0.3478
   4.500   1.4918   0.02632   0.01996  -0.1553  0.1904  0.2500  -2.5425   0.0000   0.3426
   5.000   1.5388   0.02708   0.02073  -0.1537  0.1836  0.2500  -2.6620   0.0000   0.3377
   5.500   1.5851   0.02788   0.02154  -0.1521  0.1771  0.2500  -2.7871   0.0000   0.3329
   6.000   1.6295   0.02875   0.02241  -0.1501  0.1691  0.2500  -2.9146   0.0000   0.3283
   6.500   1.6729   0.02968   0.02336  -0.1481  0.1614  0.2500  -3.0456   0.0000   0.3239
   7.000   1.7130   0.03079   0.02448  -0.1456  0.1542  0.2500  -3.1844   0.0000   0.3195
   7.500   1.7513   0.03201   0.02570  -0.1429  0.1457  0.2500  -3.3329   0.0000   0.3152
   8.000   1.7884   0.03331   0.02700  -0.1400  0.1371  0.2500  -3.4931   0.0000   0.3110
   8.500   1.8231   0.03475   0.02847  -0.1369  0.1301  0.2500  -3.6616   0.0000   0.3069
   9.000   1.8546   0.03641   0.03014  -0.1335  0.1207  0.2500  -3.8409   0.0000   0.3028
   9.500   1.8827   0.03833   0.03208  -0.1297  0.1125  0.2500  -4.0157   0.0000   0.2987
  10.000   1.9100   0.04035   0.03414  -0.1261  0.1058  0.2500  -4.1913   0.0000   0.2948
  10.500   1.9338   0.04265   0.03647  -0.1222  0.0992  0.2500  -4.3735   0.0000   0.2909
  11.000   1.9516   0.04548   0.03934  -0.1179  0.0908  0.2500  -4.5530   0.0000   0.2871
  11.500   1.9665   0.04869   0.04259  -0.1136  0.0835  0.2500  -4.7296   0.0000   0.2834
  12.000   1.9785   0.05230   0.04627  -0.1097  0.0776  0.2500  -4.9000   0.0000   0.2798
  12.500   1.9862   0.05646   0.05051  -0.1059  0.0718  0.2500  -5.0640   0.0000   0.2765
  13.000   1.9904   0.06118   0.05532  -0.1026  0.0667  0.2500  -5.2201   0.0000   0.2735
  13.500   1.9896   0.06660   0.06085  -0.0998  0.0617  0.2500  -5.3721   0.0000   0.2708
  14.000   1.9844   0.07268   0.06704  -0.0977  0.0571  0.2500  -5.5087   0.0000   0.2685
  14.500   1.9760   0.07936   0.07385  -0.0964  0.0533  0.2500  -5.6321   0.0000   0.2666
  15.000   1.9637   0.08671   0.08135  -0.0961  0.0500  0.2500  -5.7384   0.0000   0.2653
  15.500   1.9465   0.09481   0.08960  -0.0968  0.0470  0.2500  -5.8225   0.0000   0.2646
  16.000   1.9281   0.10324   0.09820  -0.0986  0.0443  0.2500  -5.8962   0.0000   0.2644
  16.500   1.9063   0.11227   0.10740  -0.1015  0.0419  0.2500  -5.9488   0.0000   0.2648
  17.000   1.8825   0.12164   0.11693  -0.1054  0.0397  0.2500  -5.9850   0.0000   0.2659
  17.500   1.8614   0.13073   0.12620  -0.1101  0.0380  0.2500  -6.0244   0.0000   0.2673
  18.000   1.8390   0.14007   0.13569  -0.1155  0.0361  0.2500  -6.0528   0.0000   0.2692
  18.500   1.8214   0.14874   0.14451  -0.1212  0.0345  0.2500  -6.0945   0.0000   0.2712
  19.000   1.8012   0.15781   0.15372  -0.1276  0.0328  0.2500  -6.1160   0.0000   0.2737
  19.500   1.7869   0.16601   0.16205  -0.1339  0.0312  0.2500  -6.1635   0.0000   0.2759
  20.000   1.7742   0.17399   0.17015  -0.1404  0.0295  0.2500  -6.2177   0.0000   0.2783
  20.500   1.7640   0.18159   0.17786  -0.1469  0.0280  0.2500  -6.2792   0.0000   0.2805
  21.000   1.7552   0.18894   0.18531  -0.1535  0.0265  0.2500  -6.3435   0.0000   0.2828
  21.500   1.7477   0.19607   0.19255  -0.1602  0.0252  0.2500  -6.4091   0.0000   0.2851
  22.000   1.7414   0.20295   0.19953  -0.1669  0.0237  0.2500  -6.4775   0.0000   0.2873
  22.500   1.7353   0.20977   0.20644  -0.1738  0.0224  0.2500  -6.5417   0.0000   0.2896
  23.000   1.7308   0.21625   0.21301  -0.1805  0.0213  0.2500  -6.6116   0.0000   0.2917
  23.500   1.7252   0.22286   0.21971  -0.1877  0.0201  0.2500  -6.6694   0.0000   0.2941
  24.000   1.7232   0.22882   0.22576  -0.1942  0.0192  0.2500  -6.7476   0.0000   0.2960
  24.500   1.7198   0.23495   0.23197  -0.2012  0.0182  0.2500  -6.8120   0.0000   0.2981
  25.000   1.7199   0.24038   0.23748  -0.2075  0.0174  0.2500  -6.8996   0.0000   0.2996


