xflr5 v6.47

 Calculated polar for: NACA24018_theta30_Ku4.5_Kl0.5_d0.14_delta3.44

 1 1 Reynolds number fixed          Mach number fixed         

 xtrf =   0.250 (top)        0.250 (bottom)
 Mach =   0.000     Re =     0.900 e 6     Ncrit =   5.000

  alpha     CL        CD       CDp       Cm    Top Xtr Bot Xtr   Cpmin    Chinge    XCp    
 ------- -------- --------- --------- -------- ------- ------- -------- --------- ---------
 -15.000  -0.7909   0.02809   0.02079  -0.1171  0.2500  0.0318  -5.8114   0.0000   0.0758
 -14.500  -0.7728   0.02650   0.01912  -0.1139  0.2500  0.0327  -5.5932   0.0000   0.0774
 -14.000  -0.7543   0.02509   0.01762  -0.1105  0.2500  0.0335  -5.3764   0.0000   0.0794
 -13.500  -0.7380   0.02376   0.01622  -0.1063  0.2500  0.0343  -5.1684   0.0000   0.0827
 -13.000  -0.7260   0.02255   0.01496  -0.1011  0.2500  0.0352  -4.9741   0.0000   0.0886
 -12.500  -0.7164   0.02148   0.01385  -0.0951  0.2500  0.0363  -4.7894   0.0000   0.0963
 -12.000  -0.6853   0.02054   0.01283  -0.0923  0.2500  0.0376  -4.5503   0.0000   0.0948
 -11.500  -0.6458   0.01962   0.01186  -0.0910  0.2500  0.0390  -4.2910   0.0000   0.0890
 -11.000  -0.5993   0.01885   0.01105  -0.0905  0.2500  0.0409  -4.0159   0.0000   0.0789
 -10.500  -0.5480   0.01818   0.01033  -0.0908  0.2500  0.0429  -3.7346   0.0000   0.0642
 -10.000  -0.4933   0.01760   0.00972  -0.0915  0.2500  0.0454  -3.4507   0.0000   0.0440
  -9.500  -0.4357   0.01709   0.00917  -0.0926  0.2500  0.0480  -3.1678   0.0000   0.0162
  -9.000  -0.3763   0.01668   0.00873  -0.0940  0.2500  0.0513  -2.8992   0.0000  -0.0220
  -8.500  -0.3149   0.01630   0.00833  -0.0956  0.2500  0.0551  -2.6349   0.0000  -0.0779
  -8.000  -0.2523   0.01599   0.00801  -0.0974  0.2500  0.0597  -2.3861   0.0000  -0.1635
  -7.500  -0.1887   0.01575   0.00776  -0.0993  0.2500  0.0651  -2.1449   0.0000  -0.3089
  -7.000  -0.1242   0.01555   0.00756  -0.1013  0.2500  0.0719  -1.9112   0.0000  -0.6099
  -6.500  -0.0591   0.01539   0.00742  -0.1033  0.2500  0.0799  -1.6936   0.0000  -1.5824
  -6.000   0.0067   0.01528   0.00733  -0.1055  0.2500  0.0911  -1.4846   0.0000  16.7210
  -5.500   0.0734   0.01520   0.00729  -0.1078  0.2500  0.1056  -1.2899   0.0000   1.7696
  -5.000   0.1413   0.01515   0.00730  -0.1104  0.2500  0.1265  -1.1092   0.0000   1.0536
  -4.500   0.2125   0.01510   0.00737  -0.1136  0.2500  0.1640  -0.9309   0.0000   0.7968
  -4.000   0.2955   0.01502   0.00756  -0.1194  0.2500  0.2500  -0.8320   0.0000   0.6608
  -3.500   0.3561   0.01519   0.00768  -0.1202  0.2500  0.2500  -0.8947   0.0000   0.5915
  -3.000   0.4162   0.01538   0.00783  -0.1209  0.2500  0.2500  -0.9613   0.0000   0.5424
  -2.500   0.4759   0.01558   0.00800  -0.1215  0.2500  0.2500  -1.0311   0.0000   0.5057
  -2.000   0.5352   0.01580   0.00820  -0.1221  0.2500  0.2500  -1.1015   0.0000   0.4772
  -1.500   0.5940   0.01604   0.00843  -0.1225  0.2500  0.2500  -1.1724   0.0000   0.4543
  -1.000   0.6523   0.01630   0.00868  -0.1229  0.2500  0.2500  -1.2465   0.0000   0.4355
  -0.500   0.7101   0.01657   0.00896  -0.1231  0.2500  0.2500  -1.3248   0.0000   0.4197
   0.000   0.7674   0.01686   0.00926  -0.1233  0.2500  0.2500  -1.4042   0.0000   0.4063
   0.500   0.8242   0.01717   0.00959  -0.1234  0.2500  0.2500  -1.4858   0.0000   0.3946
   1.000   0.8804   0.01750   0.00996  -0.1234  0.2500  0.2500  -1.5700   0.0000   0.3843
   1.500   0.9359   0.01785   0.01035  -0.1232  0.2500  0.2500  -1.6549   0.0000   0.3752
   2.000   0.9907   0.01823   0.01077  -0.1230  0.2500  0.2500  -1.7453   0.0000   0.3670
   2.500   1.0445   0.01865   0.01124  -0.1226  0.2500  0.2500  -1.8384   0.0000   0.3595
   3.000   1.0972   0.01911   0.01176  -0.1220  0.2487  0.2500  -1.9316   0.0000   0.3526
   3.500   1.1482   0.01964   0.01230  -0.1211  0.2411  0.2500  -2.0286   0.0000   0.3463
   4.000   1.1983   0.02022   0.01290  -0.1201  0.2344  0.2500  -2.1268   0.0000   0.3403
   4.500   1.2477   0.02083   0.01353  -0.1191  0.2271  0.2500  -2.2290   0.0000   0.3348
   5.000   1.2958   0.02151   0.01423  -0.1178  0.2204  0.2500  -2.3375   0.0000   0.3296
   5.500   1.3426   0.02222   0.01499  -0.1164  0.2133  0.2500  -2.4486   0.0000   0.3246
   6.000   1.3873   0.02304   0.01583  -0.1146  0.2066  0.2500  -2.5583   0.0000   0.3198
   6.500   1.4315   0.02388   0.01672  -0.1129  0.1997  0.2500  -2.6765   0.0000   0.3152
   7.000   1.4742   0.02481   0.01770  -0.1109  0.1934  0.2500  -2.8011   0.0000   0.3108
   7.500   1.5143   0.02587   0.01880  -0.1087  0.1854  0.2500  -2.9238   0.0000   0.3065
   8.000   1.5539   0.02698   0.01997  -0.1064  0.1791  0.2500  -3.0520   0.0000   0.3024
   8.500   1.5905   0.02825   0.02129  -0.1038  0.1725  0.2500  -3.1928   0.0000   0.2983
   9.000   1.6260   0.02962   0.02272  -0.1012  0.1649  0.2500  -3.3363   0.0000   0.2944
   9.500   1.6571   0.03128   0.02443  -0.0981  0.1575  0.2500  -3.4878   0.0000   0.2904
  10.000   1.6879   0.03301   0.02624  -0.0952  0.1502  0.2500  -3.6434   0.0000   0.2867
  10.500   1.7148   0.03505   0.02835  -0.0921  0.1427  0.2500  -3.8076   0.0000   0.2830
  11.000   1.7372   0.03751   0.03087  -0.0888  0.1353  0.2500  -3.9682   0.0000   0.2794
  11.500   1.7596   0.04009   0.03354  -0.0859  0.1282  0.2500  -4.1380   0.0000   0.2760
  12.000   1.7764   0.04324   0.03677  -0.0828  0.1208  0.2500  -4.2990   0.0000   0.2728
  12.500   1.7888   0.04691   0.04053  -0.0800  0.1140  0.2500  -4.4519   0.0000   0.2697
  13.000   1.7987   0.05100   0.04473  -0.0776  0.1072  0.2500  -4.6033   0.0000   0.2670
  13.500   1.8042   0.05571   0.04957  -0.0756  0.1008  0.2500  -4.7501   0.0000   0.2645
  14.000   1.8028   0.06133   0.05531  -0.0741  0.0950  0.2500  -4.8798   0.0000   0.2624
  14.500   1.7969   0.06772   0.06184  -0.0733  0.0893  0.2500  -4.9936   0.0000   0.2608
  15.000   1.7873   0.07482   0.06911  -0.0734  0.0843  0.2500  -5.0924   0.0000   0.2597
  15.500   1.7686   0.08322   0.07768  -0.0745  0.0796  0.2500  -5.1568   0.0000   0.2593
  16.000   1.7488   0.09203   0.08668  -0.0765  0.0750  0.2500  -5.2115   0.0000   0.2594
  16.500   1.7229   0.10181   0.09664  -0.0796  0.0710  0.2500  -5.2389   0.0000   0.2604
  17.000   1.6954   0.11200   0.10702  -0.0839  0.0672  0.2500  -5.2519   0.0000   0.2620
  17.500   1.6718   0.12179   0.11698  -0.0887  0.0638  0.2500  -5.2706   0.0000   0.2640
  18.000   1.6461   0.13194   0.12729  -0.0944  0.0603  0.2500  -5.2710   0.0000   0.2667
  18.500   1.6303   0.14077   0.13627  -0.1000  0.0570  0.2500  -5.3044   0.0000   0.2690
  19.000   1.6111   0.15017   0.14580  -0.1065  0.0536  0.2500  -5.3143   0.0000   0.2721
  19.500   1.5997   0.15838   0.15412  -0.1125  0.0503  0.2500  -5.3578   0.0000   0.2747
  20.000   1.5890   0.16652   0.16238  -0.1189  0.0475  0.2500  -5.4050   0.0000   0.2775
  20.500   1.5806   0.17435   0.17031  -0.1254  0.0447  0.2500  -5.4587   0.0000   0.2803
  21.000   1.5759   0.18156   0.17762  -0.1316  0.0421  0.2500  -5.5278   0.0000   0.2828
  21.500   1.5691   0.18913   0.18528  -0.1384  0.0394  0.2500  -5.5789   0.0000   0.2857
  22.000   1.5682   0.19570   0.19195  -0.1446  0.0370  0.2500  -5.6598   0.0000   0.2879
  22.500   1.5642   0.20277   0.19910  -0.1514  0.0348  0.2500  -5.7170   0.0000   0.2907
  23.000   1.5637   0.20920   0.20563  -0.1579  0.0327  0.2500  -5.7919   0.0000   0.2930
  23.500   1.5623   0.21575   0.21225  -0.1646  0.0308  0.2500  -5.8562   0.0000   0.2955
  24.000   1.5643   0.22159   0.21818  -0.1708  0.0290  0.2500  -5.9415   0.0000   0.2975
  24.500   1.5636   0.22791   0.22458  -0.1777  0.0273  0.2500  -6.0027   0.0000   0.3000
  25.000   1.5647   0.23383   0.23059  -0.1843  0.0257  0.2500  -6.0798   0.0000   0.3021


