xflr5 v6.47

 Calculated polar for: NACA24018_theta30_Ku4.5_Kl0.5_d0.21_delta5.84

 1 1 Reynolds number fixed          Mach number fixed         

 xtrf =   0.250 (top)        0.250 (bottom)
 Mach =   0.000     Re =     0.700 e 6     Ncrit =   5.000

  alpha     CL        CD       CDp       Cm    Top Xtr Bot Xtr   Cpmin    Chinge    XCp    
 ------- -------- --------- --------- -------- ------- ------- -------- --------- ---------
 -15.000  -0.7432   0.03280   0.02564  -0.1069  0.2500  0.0364  -5.5256   0.0000   0.0806
 -14.500  -0.7298   0.03088   0.02366  -0.1040  0.2500  0.0373  -5.3327   0.0000   0.0830
 -14.000  -0.6962   0.02936   0.02206  -0.1036  0.2500  0.0387  -5.0724   0.0000   0.0773
 -13.500  -0.6522   0.02810   0.02069  -0.1043  0.2500  0.0401  -4.7845   0.0000   0.0664
 -13.000  -0.6003   0.02696   0.01951  -0.1061  0.2500  0.0417  -4.4882   0.0000   0.0493
 -12.500  -0.5433   0.02615   0.01861  -0.1083  0.2500  0.0436  -4.1830   0.0000   0.0263
 -12.000  -0.4816   0.02544   0.01786  -0.1111  0.2500  0.0459  -3.8708   0.0000  -0.0060
 -11.500  -0.4183   0.02495   0.01728  -0.1138  0.2500  0.0485  -3.5628   0.0000  -0.0489
 -11.000  -0.3515   0.02453   0.01684  -0.1170  0.2500  0.0515  -3.2545   0.0000  -0.1124
 -10.500  -0.2834   0.02426   0.01653  -0.1203  0.2500  0.0550  -2.9650   0.0000  -0.2078
 -10.000  -0.2150   0.02410   0.01632  -0.1235  0.2500  0.0589  -2.6835   0.0000  -0.3646
  -9.500  -0.1456   0.02403   0.01622  -0.1267  0.2500  0.0637  -2.4130   0.0000  -0.6743
  -8.500  -0.0034   0.02414   0.01631  -0.1336  0.2500  0.0768  -1.9112   0.0000  -40.6787
  -8.000   0.0685   0.02431   0.01649  -0.1370  0.2500  0.0858  -1.6814   0.0000   2.3352
  -7.500   0.1402   0.02456   0.01674  -0.1404  0.2500  0.0975  -1.4605   0.0000   1.2880
  -7.000   0.2141   0.02487   0.01709  -0.1441  0.2500  0.1141  -1.2476   0.0000   0.9442
  -6.500   0.2892   0.02526   0.01754  -0.1480  0.2500  0.1380  -1.0549   0.0000   0.7753
  -6.000   0.3716   0.02580   0.01821  -0.1534  0.2500  0.1829  -0.8657   0.0000   0.6714
  -5.500   0.4602   0.02652   0.01909  -0.1599  0.2500  0.2500  -0.8823   0.0000   0.6029
  -5.000   0.5208   0.02696   0.01947  -0.1607  0.2500  0.2500  -0.9477   0.0000   0.5622
  -4.500   0.5808   0.02742   0.01988  -0.1615  0.2500  0.2500  -1.0155   0.0000   0.5300
  -4.000   0.6401   0.02788   0.02031  -0.1621  0.2500  0.2500  -1.0863   0.0000   0.5039
  -3.500   0.6988   0.02837   0.02077  -0.1625  0.2500  0.2500  -1.1581   0.0000   0.4822
  -3.000   0.7569   0.02887   0.02125  -0.1629  0.2500  0.2500  -1.2303   0.0000   0.4638
  -2.500   0.8144   0.02939   0.02176  -0.1632  0.2500  0.2500  -1.3042   0.0000   0.4480
  -2.000   0.8711   0.02993   0.02230  -0.1633  0.2500  0.2500  -1.3838   0.0000   0.4342
  -1.500   0.9273   0.03049   0.02287  -0.1633  0.2500  0.2500  -1.4638   0.0000   0.4221
  -1.000   0.9829   0.03106   0.02347  -0.1632  0.2500  0.2500  -1.5443   0.0000   0.4113
  -0.500   1.0375   0.03167   0.02410  -0.1629  0.2500  0.2500  -1.6307   0.0000   0.4016
   0.000   1.0913   0.03230   0.02478  -0.1625  0.2500  0.2500  -1.7187   0.0000   0.3927
   0.500   1.1443   0.03298   0.02551  -0.1620  0.2500  0.2500  -1.8070   0.0000   0.3846
   1.000   1.1965   0.03368   0.02627  -0.1613  0.2500  0.2500  -1.8957   0.0000   0.3772
   1.500   1.2480   0.03441   0.02706  -0.1605  0.2500  0.2500  -1.9897   0.0000   0.3703
   2.000   1.2987   0.03518   0.02790  -0.1596  0.2500  0.2500  -2.0904   0.0000   0.3638
   2.500   1.3483   0.03598   0.02877  -0.1586  0.2472  0.2500  -2.1913   0.0000   0.3578
   3.000   1.3950   0.03691   0.02970  -0.1571  0.2389  0.2500  -2.2904   0.0000   0.3521
   3.500   1.4419   0.03784   0.03068  -0.1557  0.2321  0.2500  -2.3936   0.0000   0.3466
   4.000   1.4857   0.03895   0.03181  -0.1538  0.2250  0.2500  -2.4992   0.0000   0.3414
   4.500   1.5294   0.04006   0.03299  -0.1520  0.2184  0.2500  -2.6124   0.0000   0.3365
   5.000   1.5709   0.04130   0.03426  -0.1499  0.2106  0.2500  -2.7281   0.0000   0.3317
   5.500   1.6123   0.04255   0.03557  -0.1478  0.2037  0.2500  -2.8524   0.0000   0.3271
   6.000   1.6492   0.04409   0.03714  -0.1451  0.1962  0.2500  -2.9721   0.0000   0.3225
   6.500   1.6871   0.04557   0.03871  -0.1427  0.1896  0.2500  -3.1079   0.0000   0.3182
   7.000   1.7205   0.04738   0.04056  -0.1397  0.1822  0.2500  -3.2389   0.0000   0.3139
   7.500   1.7543   0.04918   0.04246  -0.1369  0.1751  0.2500  -3.3831   0.0000   0.3098
   8.000   1.7838   0.05129   0.04464  -0.1337  0.1678  0.2500  -3.5312   0.0000   0.3058
   8.500   1.8117   0.05357   0.04700  -0.1305  0.1607  0.2500  -3.6857   0.0000   0.3018
   9.000   1.8359   0.05620   0.04971  -0.1271  0.1523  0.2500  -3.8472   0.0000   0.2980
   9.500   1.8564   0.05919   0.05278  -0.1236  0.1453  0.2500  -4.0145   0.0000   0.2942
  10.000   1.8747   0.06246   0.05615  -0.1202  0.1381  0.2500  -4.1786   0.0000   0.2906
  10.500   1.8895   0.06615   0.05996  -0.1169  0.1309  0.2500  -4.3354   0.0000   0.2872
  11.000   1.8993   0.07044   0.06436  -0.1138  0.1239  0.2500  -4.4819   0.0000   0.2841
  11.500   1.9043   0.07534   0.06938  -0.1111  0.1163  0.2500  -4.6278   0.0000   0.2812
  12.000   1.9070   0.08062   0.07478  -0.1089  0.1090  0.2500  -4.7695   0.0000   0.2786
  12.500   1.9067   0.08634   0.08065  -0.1074  0.1029  0.2500  -4.9036   0.0000   0.2765
  13.000   1.9018   0.09272   0.08718  -0.1066  0.0975  0.2500  -5.0234   0.0000   0.2748
  13.500   1.8934   0.09963   0.09425  -0.1068  0.0919  0.2500  -5.1285   0.0000   0.2736
  14.000   1.8835   0.10684   0.10162  -0.1079  0.0863  0.2500  -5.2237   0.0000   0.2730
  14.500   1.8691   0.11472   0.10967  -0.1100  0.0812  0.2500  -5.2989   0.0000   0.2730
  15.000   1.8510   0.12323   0.11834  -0.1134  0.0764  0.2500  -5.3562   0.0000   0.2737
  15.500   1.8347   0.13158   0.12687  -0.1175  0.0719  0.2500  -5.4130   0.0000   0.2748
  16.000   1.8177   0.14006   0.13552  -0.1223  0.0679  0.2500  -5.4600   0.0000   0.2763
  16.500   1.7989   0.14885   0.14446  -0.1280  0.0639  0.2500  -5.4910   0.0000   0.2783
  17.000   1.7830   0.15727   0.15302  -0.1339  0.0601  0.2500  -5.5301   0.0000   0.2805
  17.500   1.7706   0.16520   0.16109  -0.1399  0.0565  0.2500  -5.5818   0.0000   0.2825
  18.000   1.7565   0.17339   0.16940  -0.1466  0.0530  0.2500  -5.6211   0.0000   0.2851
  18.500   1.7464   0.18098   0.17711  -0.1530  0.0496  0.2500  -5.6741   0.0000   0.2874
  19.000   1.7395   0.18803   0.18427  -0.1593  0.0466  0.2500  -5.7393   0.0000   0.2895
  19.500   1.7316   0.19522   0.19156  -0.1660  0.0438  0.2500  -5.7927   0.0000   0.2918
  20.000   1.7273   0.20173   0.19818  -0.1723  0.0408  0.2500  -5.8630   0.0000   0.2938
  20.500   1.7240   0.20804   0.20458  -0.1786  0.0383  0.2500  -5.9348   0.0000   0.2956
  21.000   1.7194   0.21455   0.21117  -0.1854  0.0359  0.2500  -5.9934   0.0000   0.2978
  21.500   1.7185   0.22037   0.21709  -0.1916  0.0337  0.2500  -6.0744   0.0000   0.2994
  22.000   1.7156   0.22649   0.22329  -0.1983  0.0317  0.2500  -6.1479   0.0000   0.3014
  22.500   1.7147   0.23219   0.22908  -0.2047  0.0298  0.2500  -6.2315   0.0000   0.3031
  23.000   1.7150   0.23757   0.23454  -0.2109  0.0281  0.2500  -6.3219   0.0000   0.3046
  23.500   1.7143   0.24310   0.24016  -0.2175  0.0264  0.2500  -6.4003   0.0000   0.3063
  24.000   1.7144   0.24838   0.24553  -0.2239  0.0249  0.2500  -6.4821   0.0000   0.3078
  24.500   1.7149   0.25349   0.25071  -0.2303  0.0235  0.2500  -6.5643   0.0000   0.3092
  25.000   1.7157   0.25842   0.25572  -0.2366  0.0223  0.2500  -6.6472   0.0000   0.3105


