xflr5 v6.47

 Calculated polar for: NACA24018_theta30_Ku4.5_Kl0.5_d0.14_delta3.44

 1 1 Reynolds number fixed          Mach number fixed         

 xtrf =   0.250 (top)        0.250 (bottom)
 Mach =   0.000     Re =     0.300 e 6     Ncrit =   5.000

  alpha     CL        CD       CDp       Cm    Top Xtr Bot Xtr   Cpmin    Chinge    XCp    
 ------- -------- --------- --------- -------- ------- ------- -------- --------- ---------
 -15.000  -0.6726   0.03969   0.03109  -0.1193  0.2500  0.0421  -5.1822   0.0000   0.0434
 -14.500  -0.6587   0.03728   0.02862  -0.1174  0.2500  0.0430  -5.0047   0.0000   0.0437
 -14.000  -0.6435   0.03513   0.02637  -0.1151  0.2500  0.0441  -4.8236   0.0000   0.0441
 -13.500  -0.6267   0.03321   0.02431  -0.1124  0.2500  0.0456  -4.6400   0.0000   0.0446
 -13.000  -0.6097   0.03144   0.02242  -0.1093  0.2500  0.0471  -4.4558   0.0000   0.0456
 -12.500  -0.5930   0.02985   0.02078  -0.1058  0.2500  0.0485  -4.2706   0.0000   0.0474
 -12.000  -0.5760   0.02843   0.01926  -0.1019  0.2500  0.0501  -4.0952   0.0000   0.0499
 -11.500  -0.5610   0.02712   0.01785  -0.0972  0.2500  0.0519  -3.9276   0.0000   0.0545
 -11.000  -0.5513   0.02592   0.01661  -0.0915  0.2500  0.0536  -3.7694   0.0000   0.0629
 -10.500  -0.5254   0.02479   0.01539  -0.0881  0.2500  0.0560  -3.5726   0.0000   0.0618
 -10.000  -0.4928   0.02366   0.01422  -0.0857  0.2500  0.0585  -3.3606   0.0000   0.0557
  -9.500  -0.4528   0.02273   0.01320  -0.0843  0.2500  0.0620  -3.1332   0.0000   0.0435
  -9.000  -0.4082   0.02181   0.01226  -0.0837  0.2500  0.0657  -2.9080   0.0000   0.0243
  -8.500  -0.3589   0.02104   0.01142  -0.0837  0.2500  0.0704  -2.6793   0.0000  -0.0045
  -8.000  -0.3060   0.02039   0.01072  -0.0841  0.2500  0.0761  -2.4514   0.0000  -0.0476
  -7.500  -0.2499   0.01978   0.01009  -0.0851  0.2500  0.0830  -2.2292   0.0000  -0.1158
  -7.000  -0.1912   0.01927   0.00957  -0.0865  0.2500  0.0919  -2.0083   0.0000  -0.2316
  -6.500  -0.1299   0.01883   0.00914  -0.0882  0.2500  0.1033  -1.7961   0.0000  -0.4676
  -6.000  -0.0664   0.01845   0.00879  -0.0904  0.2500  0.1198  -1.5894   0.0000  -1.1773
  -5.500  -0.0001   0.01812   0.00853  -0.0930  0.2500  0.1457  -1.3922   0.0000  -1442.9669
  -5.000   0.0742   0.01772   0.00833  -0.0974  0.2500  0.2030  -1.1971   0.0000   1.6071
  -4.500   0.1459   0.01757   0.00827  -0.1010  0.2500  0.2500  -1.0170   0.0000   0.9605
  -4.000   0.2054   0.01771   0.00829  -0.1016  0.2500  0.2500  -0.8650   0.0000   0.7551
  -3.500   0.2645   0.01788   0.00836  -0.1022  0.2500  0.2500  -0.8349   0.0000   0.6424
  -3.000   0.3231   0.01807   0.00848  -0.1027  0.2500  0.2500  -0.8963   0.0000   0.5710
  -2.500   0.3812   0.01830   0.00864  -0.1032  0.2500  0.2500  -0.9624   0.0000   0.5216
  -2.000   0.4389   0.01855   0.00885  -0.1035  0.2500  0.2500  -1.0302   0.0000   0.4852
  -1.500   0.4961   0.01882   0.00910  -0.1037  0.2500  0.2500  -1.0985   0.0000   0.4573
  -1.000   0.5526   0.01913   0.00939  -0.1039  0.2500  0.2500  -1.1679   0.0000   0.4351
  -0.500   0.6086   0.01946   0.00971  -0.1039  0.2500  0.2500  -1.2402   0.0000   0.4170
   0.000   0.6640   0.01982   0.01009  -0.1039  0.2500  0.2500  -1.3162   0.0000   0.4019
   0.500   0.7185   0.02021   0.01050  -0.1037  0.2500  0.2500  -1.3924   0.0000   0.3890
   1.000   0.7723   0.02064   0.01097  -0.1033  0.2500  0.2500  -1.4713   0.0000   0.3778
   1.500   0.8252   0.02111   0.01149  -0.1029  0.2500  0.2500  -1.5515   0.0000   0.3680
   2.000   0.8774   0.02161   0.01205  -0.1023  0.2500  0.2500  -1.6336   0.0000   0.3593
   2.500   0.9288   0.02215   0.01265  -0.1016  0.2500  0.2500  -1.7196   0.0000   0.3514
   3.000   0.9794   0.02273   0.01332  -0.1009  0.2500  0.2500  -1.8082   0.0000   0.3443
   3.500   1.0290   0.02336   0.01404  -0.0999  0.2500  0.2500  -1.8972   0.0000   0.3378
   4.000   1.0774   0.02405   0.01483  -0.0989  0.2500  0.2500  -1.9894   0.0000   0.3317
   4.500   1.1248   0.02479   0.01568  -0.0977  0.2500  0.2500  -2.0832   0.0000   0.3261
   5.000   1.1714   0.02559   0.01660  -0.0964  0.2500  0.2500  -2.1801   0.0000   0.3208
   5.500   1.2172   0.02645   0.01759  -0.0950  0.2500  0.2500  -2.2820   0.0000   0.3159
   6.000   1.2618   0.02738   0.01866  -0.0935  0.2478  0.2500  -2.3867   0.0000   0.3112
   6.500   1.3017   0.02849   0.01986  -0.0914  0.2405  0.2500  -2.4879   0.0000   0.3066
   7.000   1.3397   0.02973   0.02119  -0.0892  0.2338  0.2500  -2.5954   0.0000   0.3021
   7.500   1.3763   0.03105   0.02263  -0.0869  0.2266  0.2500  -2.7082   0.0000   0.2978
   8.000   1.4100   0.03258   0.02426  -0.0844  0.2201  0.2500  -2.8178   0.0000   0.2937
   8.500   1.4430   0.03419   0.02601  -0.0819  0.2131  0.2500  -2.9319   0.0000   0.2897
   9.000   1.4719   0.03609   0.02803  -0.0792  0.2068  0.2500  -3.0530   0.0000   0.2859
   9.500   1.5000   0.03814   0.03023  -0.0766  0.1995  0.2500  -3.1762   0.0000   0.2822
  10.000   1.5242   0.04055   0.03277  -0.0740  0.1931  0.2500  -3.3044   0.0000   0.2787
  10.500   1.5479   0.04311   0.03551  -0.0717  0.1865  0.2500  -3.4365   0.0000   0.2754
  11.000   1.5665   0.04618   0.03872  -0.0693  0.1800  0.2500  -3.5670   0.0000   0.2723
  11.500   1.5828   0.04961   0.04231  -0.0673  0.1728  0.2500  -3.7006   0.0000   0.2695
  12.000   1.5964   0.05343   0.04632  -0.0656  0.1665  0.2500  -3.8321   0.0000   0.2670
  12.500   1.6050   0.05790   0.05096  -0.0642  0.1598  0.2500  -3.9573   0.0000   0.2647
  13.000   1.6118   0.06274   0.05599  -0.0633  0.1531  0.2500  -4.0788   0.0000   0.2628
  13.500   1.6095   0.06875   0.06215  -0.0630  0.1466  0.2500  -4.1776   0.0000   0.2614
  14.000   1.6106   0.07461   0.06826  -0.0633  0.1402  0.2500  -4.2849   0.0000   0.2603
  14.500   1.6024   0.08175   0.07556  -0.0645  0.1342  0.2500  -4.3662   0.0000   0.2598
  15.000   1.5938   0.08914   0.08318  -0.0663  0.1277  0.2500  -4.4456   0.0000   0.2598
  15.500   1.5814   0.09716   0.09139  -0.0689  0.1217  0.2500  -4.5096   0.0000   0.2603
  16.000   1.5652   0.10585   0.10024  -0.0725  0.1157  0.2500  -4.5566   0.0000   0.2616
  16.500   1.5530   0.11413   0.10873  -0.0765  0.1098  0.2500  -4.6110   0.0000   0.2631
  17.000   1.5379   0.12285   0.11760  -0.0813  0.1041  0.2500  -4.6486   0.0000   0.2651
  17.500   1.5246   0.13142   0.12633  -0.0865  0.0982  0.2500  -4.6856   0.0000   0.2675
  18.000   1.5133   0.13975   0.13482  -0.0920  0.0926  0.2500  -4.7252   0.0000   0.2700
  18.500   1.5028   0.14797   0.14314  -0.0979  0.0872  0.2500  -4.7653   0.0000   0.2728
  19.000   1.4941   0.15595   0.15125  -0.1040  0.0817  0.2500  -4.8067   0.0000   0.2756
  19.500   1.4873   0.16365   0.15909  -0.1102  0.0767  0.2500  -4.8505   0.0000   0.2785
  20.000   1.4821   0.17108   0.16660  -0.1164  0.0719  0.2500  -4.8992   0.0000   0.2813
  20.500   1.4778   0.17839   0.17402  -0.1228  0.0672  0.2500  -4.9496   0.0000   0.2842
  21.000   1.4750   0.18547   0.18123  -0.1293  0.0629  0.2500  -5.0029   0.0000   0.2870
  21.500   1.4744   0.19208   0.18790  -0.1355  0.0589  0.2500  -5.0752   0.0000   0.2895
  22.000   1.4729   0.19891   0.19484  -0.1421  0.0550  0.2500  -5.1349   0.0000   0.2924
  22.500   1.4722   0.20555   0.20159  -0.1487  0.0515  0.2500  -5.1947   0.0000   0.2952
  23.000   1.4748   0.21147   0.20755  -0.1549  0.0484  0.2500  -5.2754   0.0000   0.2973
  23.500   1.4733   0.21820   0.21443  -0.1619  0.0453  0.2500  -5.3180   0.0000   0.3004
  24.000   1.4764   0.22394   0.22024  -0.1682  0.0426  0.2500  -5.3922   0.0000   0.3025
  24.500   1.4778   0.23001   0.22641  -0.1749  0.0400  0.2500  -5.4481   0.0000   0.3051
  25.000   1.4775   0.23642   0.23294  -0.1820  0.0375  0.2500  -5.4837   0.0000   0.3080


