xflr5 v6.47

 Calculated polar for: NACA24018_theta30_Ku4.5_Kl0.5_d0.28_delta9.02

 1 1 Reynolds number fixed          Mach number fixed         

 xtrf =   0.250 (top)        0.250 (bottom)
 Mach =   0.000     Re =     3.500 e 6     Ncrit =   5.000

  alpha     CL        CD       CDp       Cm    Top Xtr Bot Xtr   Cpmin    Chinge    XCp    
 ------- -------- --------- --------- -------- ------- ------- -------- --------- ---------
 -15.000  -0.3300   0.02690   0.02177  -0.1496  0.2500  0.0350  -4.0341   0.0000  -0.2434
 -14.500  -0.2625   0.02733   0.02218  -0.1528  0.2500  0.0366  -3.7028   0.0000  -0.3789
 -14.000  -0.1942   0.02786   0.02268  -0.1561  0.2500  0.0383  -3.3795   0.0000  -0.6119
 -13.500  -0.1246   0.02851   0.02332  -0.1596  0.2500  0.0405  -3.0627   0.0000  -1.1133
 -13.000  -0.0564   0.02925   0.02405  -0.1627  0.2500  0.0432  -2.7600   0.0000  -2.8037
 -12.500   0.0109   0.03005   0.02485  -0.1655  0.2500  0.0457  -2.4703   0.0000  16.2763
 -12.000   0.0796   0.03097   0.02577  -0.1685  0.2500  0.0491  -2.2064   0.0000   2.4638
 -11.500   0.1476   0.03194   0.02673  -0.1714  0.2500  0.0526  -1.9592   0.0000   1.4584
 -11.000   0.2143   0.03296   0.02775  -0.1739  0.2500  0.0570  -1.7235   0.0000   1.0908
 -10.500   0.2805   0.03403   0.02883  -0.1763  0.2500  0.0618  -1.4977   0.0000   0.8983
 -10.000   0.3473   0.03520   0.03000  -0.1787  0.2500  0.0684  -1.2855   0.0000   0.7787
  -9.500   0.4150   0.03646   0.03129  -0.1813  0.2500  0.0765  -1.0854   0.0000   0.6970
  -9.000   0.4817   0.03776   0.03260  -0.1837  0.2500  0.0855  -0.9066   0.0000   0.6386
  -8.500   0.5468   0.03905   0.03392  -0.1857  0.2500  0.0962  -0.8197   0.0000   0.5947
  -8.000   0.6135   0.04047   0.03537  -0.1879  0.2500  0.1117  -0.8626   0.0000   0.5597
  -7.500   0.6815   0.04203   0.03698  -0.1904  0.2500  0.1330  -0.9356   0.0000   0.5313
  -7.000   0.7542   0.04389   0.03890  -0.1936  0.2500  0.1657  -1.0133   0.0000   0.5075
  -6.500   0.8355   0.04628   0.04142  -0.1982  0.2500  0.2246  -1.1008   0.0000   0.4870
  -6.000   0.8989   0.04786   0.04303  -0.1997  0.2500  0.2500  -1.1786   0.0000   0.4710
  -5.500   0.9507   0.04884   0.04400  -0.1992  0.2500  0.2500  -1.2502   0.0000   0.4575
  -5.000   1.0022   0.04983   0.04498  -0.1987  0.2500  0.2500  -1.3239   0.0000   0.4454
  -4.500   1.0534   0.05082   0.04597  -0.1980  0.2500  0.2500  -1.4003   0.0000   0.4344
  -4.000   1.1044   0.05183   0.04698  -0.1973  0.2500  0.2500  -1.4774   0.0000   0.4244
  -3.500   1.1549   0.05283   0.04799  -0.1966  0.2500  0.2500  -1.5558   0.0000   0.4152
  -3.000   1.2043   0.05384   0.04899  -0.1956  0.2455  0.2500  -1.6386   0.0000   0.4068
  -2.500   1.2520   0.05485   0.04995  -0.1944  0.2354  0.2500  -1.7229   0.0000   0.3989
  -2.000   1.2998   0.05584   0.05093  -0.1932  0.2309  0.2500  -1.8119   0.0000   0.3916
  -1.500   1.3460   0.05687   0.05192  -0.1917  0.2219  0.2500  -1.9006   0.0000   0.3847
  -1.000   1.3914   0.05794   0.05298  -0.1902  0.2147  0.2500  -1.9897   0.0000   0.3782
  -0.500   1.4347   0.05915   0.05416  -0.1883  0.2072  0.2500  -2.0801   0.0000   0.3720
   0.000   1.4782   0.06032   0.05534  -0.1864  0.2017  0.2500  -2.1774   0.0000   0.3662
   0.500   1.5967   0.06161   0.05627  -0.2049  0.1958  0.2500  -2.3663   0.0000   0.3680
   1.000   1.6430   0.06247   0.05711  -0.2033  0.1892  0.2500  -2.4698   0.0000   0.3626
   1.500   1.6879   0.06333   0.05796  -0.2015  0.1824  0.2500  -2.5817   0.0000   0.3574
   2.000   1.7318   0.06422   0.05883  -0.1995  0.1748  0.2500  -2.6942   0.0000   0.3524
   2.500   1.7742   0.06517   0.05974  -0.1973  0.1663  0.2500  -2.8099   0.0000   0.3476
   3.000   1.8157   0.06616   0.06074  -0.1951  0.1597  0.2500  -2.9324   0.0000   0.3430
   3.500   1.8535   0.06741   0.06195  -0.1923  0.1509  0.2500  -3.0552   0.0000   0.3384
   4.000   1.8909   0.06865   0.06317  -0.1895  0.1424  0.2500  -3.1864   0.0000   0.3340
   4.500   1.9282   0.06988   0.06439  -0.1867  0.1344  0.2500  -3.3286   0.0000   0.3297
   5.000   1.9631   0.07122   0.06569  -0.1837  0.1242  0.2500  -3.4777   0.0000   0.3255
   5.500   1.9974   0.07261   0.06707  -0.1806  0.1165  0.2500  -3.6448   0.0000   0.3214
   6.000   2.0268   0.07436   0.06881  -0.1769  0.1078  0.2500  -3.8110   0.0000   0.3173
   6.500   2.0540   0.07631   0.07074  -0.1731  0.0988  0.2500  -3.9802   0.0000   0.3132
   7.000   2.0814   0.07820   0.07262  -0.1694  0.0906  0.2500  -4.1592   0.0000   0.3093
   7.500   2.1035   0.08055   0.07495  -0.1653  0.0820  0.2500  -4.3445   0.0000   0.3054
   8.000   2.1256   0.08287   0.07729  -0.1612  0.0757  0.2500  -4.5339   0.0000   0.3015
   8.500   2.1436   0.08550   0.07993  -0.1569  0.0685  0.2500  -4.7210   0.0000   0.2977
   9.000   2.1590   0.08838   0.08283  -0.1527  0.0620  0.2500  -4.9137   0.0000   0.2940
   9.500   2.1713   0.09160   0.08608  -0.1484  0.0564  0.2500  -5.1026   0.0000   0.2904
  10.000   2.1814   0.09502   0.08955  -0.1443  0.0512  0.2500  -5.2980   0.0000   0.2869
  10.500   2.1892   0.09872   0.09329  -0.1404  0.0466  0.2500  -5.4889   0.0000   0.2835
  11.000   2.1933   0.10280   0.09744  -0.1369  0.0424  0.2500  -5.6689   0.0000   0.2804
  11.500   2.1947   0.10724   0.10195  -0.1338  0.0389  0.2500  -5.8399   0.0000   0.2775
  12.000   2.1954   0.11179   0.10659  -0.1314  0.0361  0.2500  -6.0081   0.0000   0.2748
  12.500   2.1963   0.11635   0.11124  -0.1296  0.0338  0.2500  -6.1759   0.0000   0.2724
  13.000   2.1910   0.12161   0.11660  -0.1284  0.0314  0.2500  -6.3197   0.0000   0.2704
  13.500   2.1883   0.12658   0.12168  -0.1280  0.0296  0.2500  -6.4712   0.0000   0.2686
  14.000   2.1800   0.13218   0.12739  -0.1284  0.0277  0.2500  -6.5984   0.0000   0.2672
  14.500   2.1731   0.13765   0.13299  -0.1294  0.0264  0.2500  -6.7277   0.0000   0.2661
  15.000   2.1603   0.14382   0.13928  -0.1314  0.0249  0.2500  -6.8287   0.0000   0.2655
  15.500   2.1483   0.14989   0.14549  -0.1341  0.0238  0.2500  -6.9331   0.0000   0.2652
  16.000   2.1330   0.15641   0.15214  -0.1376  0.0226  0.2500  -7.0223   0.0000   0.2653
  16.500   2.1155   0.16320   0.15907  -0.1419  0.0214  0.2500  -7.0956   0.0000   0.2658
  17.000   2.1005   0.16967   0.16567  -0.1465  0.0204  0.2500  -7.1755   0.0000   0.2663
  17.500   2.0796   0.17695   0.17309  -0.1523  0.0192  0.2500  -7.2188   0.0000   0.2676
  18.000   2.0646   0.18336   0.17963  -0.1576  0.0184  0.2500  -7.2878   0.0000   0.2685
  18.500   2.0472   0.19013   0.18653  -0.1636  0.0175  0.2500  -7.3375   0.0000   0.2698
  19.000   2.0288   0.19705   0.19356  -0.1702  0.0165  0.2500  -7.3744   0.0000   0.2715
  19.500   2.0159   0.20313   0.19976  -0.1762  0.0158  0.2500  -7.4464   0.0000   0.2727
  20.000   2.0027   0.20922   0.20595  -0.1825  0.0149  0.2500  -7.5127   0.0000   0.2740
  20.500   1.9895   0.21528   0.21211  -0.1890  0.0141  0.2500  -7.5740   0.0000   0.2755
  21.000   1.9806   0.22061   0.21755  -0.1949  0.0135  0.2500  -7.6641   0.0000   0.2765
  21.500   1.9737   0.22549   0.22250  -0.2004  0.0128  0.2500  -7.7667   0.0000   0.2773
  22.000   1.9622   0.23107   0.22817  -0.2070  0.0122  0.2500  -7.8302   0.0000   0.2787
  22.500   1.9533   0.23615   0.23336  -0.2133  0.0117  0.2500  -7.9088   0.0000   0.2799
  23.000   1.9440   0.24123   0.23853  -0.2197  0.0112  0.2500  -7.9804   0.0000   0.2811
  23.500   1.9382   0.24563   0.24300  -0.2254  0.0106  0.2500  -8.0769   0.0000   0.2819
  24.000   1.9294   0.25046   0.24792  -0.2318  0.0101  0.2500  -8.1447   0.0000   0.2831
  24.500   1.9211   0.25516   0.25270  -0.2383  0.0097  0.2500  -8.2115   0.0000   0.2843
  25.000   1.9127   0.25978   0.25740  -0.2448  0.0092  0.2500  -8.2742   0.0000   0.2855


