xflr5 v6.47

 Calculated polar for: NACA24018_theta30_Ku4.5_Kl0.5_d0.21_delta5.84

 1 1 Reynolds number fixed          Mach number fixed         

 xtrf =   0.250 (top)        0.250 (bottom)
 Mach =   0.000     Re =     3.500 e 6     Ncrit =   5.000

  alpha     CL        CD       CDp       Cm    Top Xtr Bot Xtr   Cpmin    Chinge    XCp    
 ------- -------- --------- --------- -------- ------- ------- -------- --------- ---------
 -15.000  -0.7369   0.02262   0.01675  -0.1248  0.2500  0.0278  -5.6568   0.0000   0.0545
 -14.500  -0.6733   0.02217   0.01627  -0.1276  0.2500  0.0286  -5.2786   0.0000   0.0340
 -14.000  -0.6079   0.02182   0.01589  -0.1305  0.2500  0.0297  -4.9118   0.0000   0.0082
 -13.500  -0.5403   0.02155   0.01561  -0.1337  0.2500  0.0311  -4.5551   0.0000  -0.0257
 -13.000  -0.4725   0.02140   0.01542  -0.1368  0.2500  0.0322  -4.2075   0.0000  -0.0693
 -12.500  -0.4031   0.02129   0.01531  -0.1400  0.2500  0.0343  -3.8658   0.0000  -0.1298
 -12.000  -0.3342   0.02127   0.01527  -0.1431  0.2500  0.0359  -3.5356   0.0000  -0.2142
 -11.500  -0.2633   0.02130   0.01529  -0.1465  0.2500  0.0384  -3.2133   0.0000  -0.3485
 -11.000  -0.1932   0.02139   0.01538  -0.1496  0.2500  0.0409  -2.9147   0.0000  -0.5774
 -10.500  -0.1233   0.02154   0.01552  -0.1526  0.2500  0.0437  -2.6267   0.0000  -1.0642
 -10.000  -0.0529   0.02173   0.01571  -0.1557  0.2500  0.0472  -2.3549   0.0000  -2.8565
  -9.500   0.0171   0.02196   0.01594  -0.1587  0.2500  0.0508  -2.0987   0.0000   9.9704
  -9.000   0.0870   0.02222   0.01621  -0.1615  0.2500  0.0548  -1.8594   0.0000   2.1890
  -8.500   0.1569   0.02253   0.01652  -0.1644  0.2500  0.0597  -1.6329   0.0000   1.3390
  -8.000   0.2271   0.02288   0.01688  -0.1672  0.2500  0.0668  -1.4145   0.0000   1.0121
  -7.500   0.2962   0.02324   0.01727  -0.1698  0.2500  0.0741  -1.2074   0.0000   0.8409
  -7.000   0.3653   0.02365   0.01769  -0.1724  0.2500  0.0835  -1.0260   0.0000   0.7344
  -6.500   0.4357   0.02409   0.01818  -0.1752  0.2500  0.0970  -0.8533   0.0000   0.6611
  -6.000   0.5064   0.02457   0.01870  -0.1781  0.2500  0.1139  -0.8891   0.0000   0.6080
  -5.500   0.5782   0.02510   0.01929  -0.1811  0.2500  0.1372  -0.9624   0.0000   0.5676
  -5.000   0.6551   0.02574   0.02003  -0.1851  0.2500  0.1774  -1.0434   0.0000   0.5353
  -4.500   0.7427   0.02660   0.02106  -0.1911  0.2500  0.2500  -1.1368   0.0000   0.5088
  -4.000   0.8006   0.02703   0.02147  -0.1913  0.2500  0.2500  -1.2093   0.0000   0.4894
  -3.500   0.8582   0.02747   0.02190  -0.1915  0.2500  0.2500  -1.2825   0.0000   0.4726
  -3.000   0.9154   0.02791   0.02233  -0.1916  0.2500  0.2500  -1.3583   0.0000   0.4579
  -2.500   0.9722   0.02835   0.02278  -0.1917  0.2500  0.2500  -1.4395   0.0000   0.4449
  -2.000   1.0288   0.02880   0.02323  -0.1917  0.2500  0.2500  -1.5214   0.0000   0.4332
  -1.500   1.0847   0.02924   0.02366  -0.1915  0.2465  0.2500  -1.6039   0.0000   0.4227
  -1.000   1.1398   0.02968   0.02405  -0.1913  0.2380  0.2500  -1.6934   0.0000   0.4132
  -0.500   1.1948   0.03014   0.02451  -0.1910  0.2335  0.2500  -1.7844   0.0000   0.4045
   0.000   1.2486   0.03062   0.02494  -0.1905  0.2237  0.2500  -1.8754   0.0000   0.3965
   0.500   1.3022   0.03112   0.02543  -0.1899  0.2177  0.2500  -1.9675   0.0000   0.3891
   1.000   1.3545   0.03164   0.02591  -0.1891  0.2087  0.2500  -2.0655   0.0000   0.3822
   1.500   1.4069   0.03217   0.02644  -0.1884  0.2046  0.2500  -2.1705   0.0000   0.3757
   2.000   1.4576   0.03274   0.02697  -0.1873  0.1963  0.2500  -2.2749   0.0000   0.3696
   2.500   1.5082   0.03331   0.02755  -0.1863  0.1902  0.2500  -2.3807   0.0000   0.3638
   3.000   1.5571   0.03396   0.02816  -0.1849  0.1816  0.2500  -2.4877   0.0000   0.3584
   3.500   1.6057   0.03462   0.02882  -0.1836  0.1753  0.2500  -2.6022   0.0000   0.3531
   4.000   1.6530   0.03534   0.02952  -0.1820  0.1679  0.2500  -2.7237   0.0000   0.3481
   4.500   1.6980   0.03618   0.03034  -0.1801  0.1598  0.2500  -2.8506   0.0000   0.3433
   5.000   1.7410   0.03712   0.03127  -0.1778  0.1514  0.2500  -2.9806   0.0000   0.3385
   5.500   1.7837   0.03808   0.03223  -0.1756  0.1445  0.2500  -3.1173   0.0000   0.3340
   6.000   1.8244   0.03915   0.03327  -0.1730  0.1354  0.2500  -3.2619   0.0000   0.3295
   6.500   1.8635   0.04032   0.03441  -0.1703  0.1262  0.2500  -3.4060   0.0000   0.3252
   7.000   1.9015   0.04157   0.03567  -0.1674  0.1195  0.2500  -3.5713   0.0000   0.3209
   7.500   1.9338   0.04316   0.03724  -0.1638  0.1097  0.2500  -3.7324   0.0000   0.3167
   8.000   1.9654   0.04482   0.03887  -0.1602  0.1000  0.2500  -3.9132   0.0000   0.3125
   8.500   1.9933   0.04676   0.04081  -0.1561  0.0913  0.2500  -4.1025   0.0000   0.3083
   9.000   2.0212   0.04874   0.04280  -0.1522  0.0847  0.2500  -4.2946   0.0000   0.3043
   9.500   2.0453   0.05101   0.04510  -0.1480  0.0784  0.2500  -4.4808   0.0000   0.3003
  10.000   2.0659   0.05357   0.04767  -0.1435  0.0711  0.2500  -4.6611   0.0000   0.2963
  10.500   2.0819   0.05658   0.05071  -0.1387  0.0644  0.2500  -4.8498   0.0000   0.2923
  11.000   2.0958   0.05987   0.05404  -0.1341  0.0589  0.2500  -5.0397   0.0000   0.2885
  11.500   2.1057   0.06361   0.05784  -0.1295  0.0540  0.2500  -5.2240   0.0000   0.2848
  12.000   2.1121   0.06783   0.06213  -0.1251  0.0495  0.2500  -5.3989   0.0000   0.2813
  12.500   2.1178   0.07230   0.06669  -0.1213  0.0462  0.2500  -5.5724   0.0000   0.2781
  13.000   2.1185   0.07743   0.07191  -0.1180  0.0430  0.2500  -5.7342   0.0000   0.2751
  13.500   2.1137   0.08327   0.07785  -0.1151  0.0396  0.2500  -5.8792   0.0000   0.2725
  14.000   2.1064   0.08951   0.08420  -0.1132  0.0367  0.2500  -6.0140   0.0000   0.2702
  14.500   2.0993   0.09588   0.09071  -0.1121  0.0346  0.2500  -6.1478   0.0000   0.2684
  15.000   2.0862   0.10307   0.09802  -0.1121  0.0323  0.2500  -6.2650   0.0000   0.2671
  15.500   2.0749   0.11012   0.10521  -0.1129  0.0307  0.2500  -6.3845   0.0000   0.2662
  16.000   2.0574   0.11806   0.11329  -0.1149  0.0290  0.2500  -6.4728   0.0000   0.2659
  16.500   2.0433   0.12563   0.12101  -0.1175  0.0277  0.2500  -6.5696   0.0000   0.2659
  17.000   2.0226   0.13413   0.12966  -0.1214  0.0262  0.2500  -6.6306   0.0000   0.2666
  17.500   2.0038   0.14239   0.13807  -0.1259  0.0250  0.2500  -6.6929   0.0000   0.2675
  18.000   1.9850   0.15066   0.14649  -0.1310  0.0238  0.2500  -6.7481   0.0000   0.2688
  18.500   1.9647   0.15920   0.15516  -0.1369  0.0227  0.2500  -6.7880   0.0000   0.2705
  19.000   1.9480   0.16724   0.16335  -0.1429  0.0219  0.2500  -6.8381   0.0000   0.2723
  19.500   1.9309   0.17531   0.17154  -0.1494  0.0209  0.2500  -6.8795   0.0000   0.2742
  20.000   1.9171   0.18287   0.17921  -0.1558  0.0199  0.2500  -6.9395   0.0000   0.2761
  20.500   1.9061   0.18998   0.18644  -0.1621  0.0189  0.2500  -7.0124   0.0000   0.2779
  21.000   1.8932   0.19734   0.19390  -0.1690  0.0178  0.2500  -7.0681   0.0000   0.2800
  21.500   1.8845   0.20396   0.20062  -0.1755  0.0170  0.2500  -7.1452   0.0000   0.2817
  22.000   1.8754   0.21063   0.20738  -0.1822  0.0162  0.2500  -7.2144   0.0000   0.2837
  22.500   1.8661   0.21731   0.21416  -0.1893  0.0153  0.2500  -7.2757   0.0000   0.2857
  23.000   1.8607   0.22328   0.22022  -0.1957  0.0148  0.2500  -7.3604   0.0000   0.2873
  23.500   1.8568   0.22892   0.22595  -0.2020  0.0142  0.2500  -7.4522   0.0000   0.2887
  24.000   1.8518   0.23469   0.23179  -0.2086  0.0135  0.2500  -7.5318   0.0000   0.2903
  24.500   1.8466   0.24041   0.23760  -0.2154  0.0130  0.2500  -7.6062   0.0000   0.2919
  25.000   1.8418   0.24599   0.24327  -0.2221  0.0125  0.2500  -7.6788   0.0000   0.2936


