xflr5 v6.47

 Calculated polar for: NACA24018_theta30_Ku4.5_Kl0.5_d0.07_delta1.57

 1 1 Reynolds number fixed          Mach number fixed         

 xtrf =   0.250 (top)        0.250 (bottom)
 Mach =   0.000     Re =     2.500 e 6     Ncrit =   5.000

  alpha     CL        CD       CDp       Cm    Top Xtr Bot Xtr   Cpmin    Chinge    XCp    
 ------- -------- --------- --------- -------- ------- ------- -------- --------- ---------
 -15.000  -0.9258   0.01973   0.01301  -0.1176  0.2500  0.0238  -6.4616   0.0000   0.0982
 -14.500  -0.8963   0.01872   0.01196  -0.1149  0.2500  0.0245  -6.1793   0.0000   0.0979
 -14.000  -0.8657   0.01784   0.01103  -0.1119  0.2500  0.0252  -5.8973   0.0000   0.0975
 -13.500  -0.8346   0.01706   0.01021  -0.1088  0.2500  0.0256  -5.6174   0.0000   0.0971
 -13.000  -0.8053   0.01627   0.00939  -0.1053  0.2500  0.0267  -5.3491   0.0000   0.0975
 -12.500  -0.7754   0.01559   0.00869  -0.1015  0.2500  0.0278  -5.0822   0.0000   0.0980
 -12.000  -0.7452   0.01500   0.00807  -0.0976  0.2500  0.0287  -4.8247   0.0000   0.0986
 -11.500  -0.7154   0.01449   0.00753  -0.0933  0.2500  0.0293  -4.5770   0.0000   0.0997
 -11.000  -0.6905   0.01401   0.00702  -0.0880  0.2500  0.0305  -4.3553   0.0000   0.1034
 -10.500  -0.6715   0.01358   0.00658  -0.0814  0.2500  0.0317  -4.1553   0.0000   0.1104
 -10.000  -0.6352   0.01314   0.00612  -0.0780  0.2500  0.0330  -3.9122   0.0000   0.1093
  -9.500  -0.5942   0.01274   0.00569  -0.0754  0.2500  0.0342  -3.6623   0.0000   0.1055
  -9.000  -0.5501   0.01232   0.00527  -0.0734  0.2500  0.0365  -3.4103   0.0000   0.0992
  -8.500  -0.5027   0.01198   0.00492  -0.0719  0.2500  0.0383  -3.1561   0.0000   0.0896
  -8.000  -0.4538   0.01164   0.00458  -0.0706  0.2500  0.0408  -2.9058   0.0000   0.0768
  -7.500  -0.4035   0.01135   0.00429  -0.0696  0.2500  0.0434  -2.6589   0.0000   0.0596
  -7.000  -0.3521   0.01108   0.00402  -0.0687  0.2500  0.0467  -2.4263   0.0000   0.0363
  -6.500  -0.2994   0.01086   0.00380  -0.0681  0.2500  0.0496  -2.1997   0.0000   0.0031
  -6.000  -0.2457   0.01063   0.00359  -0.0677  0.2500  0.0544  -1.9871   0.0000  -0.0464
  -5.500  -0.1909   0.01044   0.00341  -0.0674  0.2500  0.0589  -1.7814   0.0000  -0.1267
  -5.000  -0.1354   0.01027   0.00326  -0.0672  0.2500  0.0646  -1.5882   0.0000  -0.2757
  -4.500  -0.0791   0.01011   0.00313  -0.0672  0.2500  0.0719  -1.4032   0.0000  -0.6423
  -4.000  -0.0222   0.00997   0.00303  -0.0674  0.2500  0.0821  -1.2241   0.0000  -2.9170
  -3.500   0.0356   0.00982   0.00294  -0.0677  0.2500  0.0961  -1.0592   0.0000   2.2170
  -3.000   0.0938   0.00971   0.00288  -0.0681  0.2500  0.1119  -0.9054   0.0000   0.9941
  -2.500   0.1532   0.00958   0.00284  -0.0687  0.2500  0.1373  -0.8021   0.0000   0.7065
  -2.000   0.2147   0.00940   0.00281  -0.0699  0.2500  0.1832  -0.8658   0.0000   0.5785
  -1.500   0.2794   0.00918   0.00279  -0.0718  0.2500  0.2500  -0.9347   0.0000   0.5072
  -1.000   0.3370   0.00924   0.00284  -0.0719  0.2500  0.2500  -1.0003   0.0000   0.4619
  -0.500   0.3946   0.00931   0.00290  -0.0721  0.2500  0.2500  -1.0715   0.0000   0.4298
   0.000   0.4519   0.00939   0.00298  -0.0722  0.2500  0.2500  -1.1449   0.0000   0.4058
   0.500   0.5091   0.00948   0.00307  -0.0722  0.2500  0.2500  -1.2191   0.0000   0.3871
   1.000   0.5660   0.00957   0.00317  -0.0723  0.2500  0.2500  -1.2940   0.0000   0.3722
   1.500   0.6227   0.00968   0.00329  -0.0723  0.2500  0.2500  -1.3730   0.0000   0.3598
   2.000   0.6784   0.00984   0.00344  -0.0721  0.2462  0.2500  -1.4526   0.0000   0.3494
   2.500   0.7334   0.01001   0.00360  -0.0719  0.2397  0.2500  -1.5354   0.0000   0.3405
   3.000   0.7873   0.01024   0.00380  -0.0714  0.2312  0.2500  -1.6196   0.0000   0.3326
   3.500   0.8412   0.01045   0.00401  -0.0710  0.2256  0.2500  -1.7091   0.0000   0.3257
   4.000   0.8931   0.01072   0.00426  -0.0702  0.2173  0.2500  -1.8019   0.0000   0.3193
   4.500   0.9457   0.01095   0.00450  -0.0695  0.2129  0.2500  -1.8975   0.0000   0.3136
   5.000   0.9967   0.01125   0.00479  -0.0686  0.2056  0.2500  -1.9925   0.0000   0.3083
   5.500   1.0481   0.01154   0.00508  -0.0678  0.1999  0.2500  -2.0913   0.0000   0.3035
   6.000   1.0976   0.01190   0.00543  -0.0668  0.1919  0.2500  -2.1921   0.0000   0.2990
   6.500   1.1476   0.01223   0.00578  -0.0658  0.1861  0.2500  -2.2989   0.0000   0.2948
   7.000   1.1943   0.01267   0.00620  -0.0643  0.1785  0.2500  -2.4101   0.0000   0.2906
   7.500   1.2412   0.01308   0.00663  -0.0628  0.1725  0.2500  -2.5235   0.0000   0.2867
   8.000   1.2863   0.01358   0.00714  -0.0611  0.1650  0.2500  -2.6464   0.0000   0.2829
   8.500   1.3317   0.01406   0.00764  -0.0596  0.1595  0.2500  -2.7728   0.0000   0.2793
   9.000   1.3730   0.01468   0.00826  -0.0574  0.1517  0.2500  -2.8996   0.0000   0.2756
   9.500   1.4138   0.01535   0.00894  -0.0552  0.1441  0.2500  -3.0357   0.0000   0.2721
  10.000   1.4527   0.01608   0.00969  -0.0528  0.1366  0.2500  -3.1823   0.0000   0.2686
  10.500   1.4889   0.01695   0.01057  -0.0502  0.1289  0.2500  -3.3281   0.0000   0.2651
  11.000   1.5217   0.01800   0.01161  -0.0472  0.1202  0.2500  -3.4816   0.0000   0.2615
  11.500   1.5553   0.01905   0.01269  -0.0446  0.1138  0.2500  -3.6475   0.0000   0.2582
  12.000   1.5846   0.02035   0.01401  -0.0415  0.1063  0.2500  -3.8198   0.0000   0.2549
  12.500   1.6095   0.02196   0.01563  -0.0383  0.0980  0.2500  -3.9887   0.0000   0.2515
  13.000   1.6338   0.02369   0.01739  -0.0353  0.0913  0.2500  -4.1618   0.0000   0.2483
  13.500   1.6561   0.02566   0.01940  -0.0325  0.0852  0.2500  -4.3317   0.0000   0.2453
  14.000   1.6732   0.02809   0.02187  -0.0296  0.0788  0.2500  -4.5022   0.0000   0.2423
  14.500   1.6860   0.03099   0.02482  -0.0269  0.0723  0.2500  -4.6678   0.0000   0.2394
  15.000   1.6995   0.03406   0.02796  -0.0248  0.0675  0.2500  -4.8377   0.0000   0.2370
  15.500   1.7056   0.03794   0.03191  -0.0230  0.0625  0.2500  -4.9858   0.0000   0.2346
  16.000   1.7105   0.04221   0.03628  -0.0218  0.0583  0.2500  -5.1300   0.0000   0.2327
  16.500   1.7090   0.04737   0.04153  -0.0212  0.0544  0.2500  -5.2531   0.0000   0.2311
  17.000   1.7044   0.05313   0.04741  -0.0213  0.0514  0.2500  -5.3642   0.0000   0.2298
  17.500   1.6921   0.06004   0.05445  -0.0221  0.0484  0.2500  -5.4560   0.0000   0.2290
  18.000   1.6774   0.06751   0.06207  -0.0236  0.0461  0.2500  -5.5360   0.0000   0.2286
  18.500   1.6480   0.07703   0.07175  -0.0263  0.0433  0.2500  -5.5570   0.0000   0.2290
  19.000   1.6207   0.08662   0.08151  -0.0296  0.0414  0.2500  -5.5783   0.0000   0.2298
  19.500   1.5877   0.09717   0.09223  -0.0338  0.0395  0.2500  -5.5696   0.0000   0.2313
  20.000   1.5531   0.10817   0.10339  -0.0388  0.0375  0.2500  -5.5497   0.0000   0.2334
  20.500   1.5290   0.11788   0.11326  -0.0438  0.0362  0.2500  -5.5660   0.0000   0.2356
  21.000   1.5051   0.12772   0.12325  -0.0495  0.0346  0.2500  -5.5735   0.0000   0.2382
  21.500   1.4816   0.13761   0.13325  -0.0557  0.0326  0.2500  -5.5724   0.0000   0.2413
  22.000   1.4683   0.14604   0.14181  -0.0615  0.0312  0.2500  -5.6129   0.0000   0.2440
  22.500   1.4558   0.15444   0.15031  -0.0676  0.0295  0.2500  -5.6496   0.0000   0.2470
  23.000   1.4456   0.16253   0.15848  -0.0738  0.0278  0.2500  -5.6916   0.0000   0.2500
  23.500   1.4401   0.16989   0.16595  -0.0798  0.0266  0.2500  -5.7530   0.0000   0.2527
  24.000   1.4327   0.17755   0.17369  -0.0863  0.0252  0.2500  -5.8018   0.0000   0.2558
  24.500   1.4276   0.18485   0.18108  -0.0928  0.0239  0.2500  -5.8592   0.0000   0.2589
  25.000   1.4265   0.19149   0.18782  -0.0989  0.0229  0.2500  -5.9364   0.0000   0.2615


