xflr5 v6.47

 Calculated polar for: NACA24018_theta30_Ku4.5_Kl0.5_d0.21_delta5.84

 1 1 Reynolds number fixed          Mach number fixed         

 xtrf =   0.250 (top)        0.250 (bottom)
 Mach =   0.000     Re =     1.500 e 6     Ncrit =   5.000

  alpha     CL        CD       CDp       Cm    Top Xtr Bot Xtr   Cpmin    Chinge    XCp    
 ------- -------- --------- --------- -------- ------- ------- -------- --------- ---------
 -15.000  -0.7804   0.02640   0.01990  -0.1113  0.2500  0.0314  -5.7504   0.0000   0.0826
 -14.500  -0.7287   0.02548   0.01890  -0.1128  0.2500  0.0323  -5.4151   0.0000   0.0706
 -14.000  -0.6715   0.02462   0.01799  -0.1151  0.2500  0.0336  -5.0691   0.0000   0.0537
 -13.500  -0.6105   0.02400   0.01733  -0.1177  0.2500  0.0350  -4.7280   0.0000   0.0319
 -13.000  -0.5466   0.02351   0.01680  -0.1205  0.2500  0.0366  -4.3907   0.0000   0.0034
 -12.500  -0.4809   0.02314   0.01639  -0.1235  0.2500  0.0386  -4.0563   0.0000  -0.0343
 -12.000  -0.4137   0.02288   0.01609  -0.1266  0.2500  0.0405  -3.7281   0.0000  -0.0853
 -11.500  -0.3451   0.02271   0.01590  -0.1298  0.2500  0.0432  -3.4049   0.0000  -0.1586
 -11.000  -0.2760   0.02263   0.01579  -0.1330  0.2500  0.0459  -3.0995   0.0000  -0.2692
 -10.500  -0.2068   0.02262   0.01576  -0.1361  0.2500  0.0489  -2.8086   0.0000  -0.4536
 -10.000  -0.1364   0.02268   0.01581  -0.1394  0.2500  0.0527  -2.5244   0.0000  -0.8351
  -9.500  -0.0660   0.02280   0.01592  -0.1426  0.2500  0.0569  -2.2620   0.0000  -2.0303
  -9.000   0.0042   0.02298   0.01609  -0.1456  0.2500  0.0618  -2.0097   0.0000  36.3411
  -8.500   0.0747   0.02321   0.01633  -0.1487  0.2500  0.0682  -1.7770   0.0000   2.3276
  -8.000   0.1451   0.02349   0.01661  -0.1517  0.2500  0.0756  -1.5533   0.0000   1.3354
  -7.500   0.2167   0.02383   0.01697  -0.1549  0.2500  0.0854  -1.3363   0.0000   0.9885
  -7.000   0.2875   0.02421   0.01738  -0.1579  0.2500  0.0979  -1.1384   0.0000   0.8148
  -6.500   0.3598   0.02464   0.01786  -0.1611  0.2500  0.1157  -0.9562   0.0000   0.7086
  -6.000   0.4342   0.02515   0.01844  -0.1648  0.2500  0.1414  -0.8412   0.0000   0.6368
  -5.500   0.5152   0.02580   0.01922  -0.1697  0.2500  0.1886  -0.9190   0.0000   0.5842
  -5.000   0.5998   0.02659   0.02016  -0.1752  0.2500  0.2500  -1.0034   0.0000   0.5451
  -4.500   0.6593   0.02703   0.02056  -0.1758  0.2500  0.2500  -1.0737   0.0000   0.5183
  -4.000   0.7183   0.02747   0.02098  -0.1763  0.2500  0.2500  -1.1458   0.0000   0.4959
  -3.500   0.7766   0.02793   0.02142  -0.1767  0.2500  0.2500  -1.2185   0.0000   0.4769
  -3.000   0.8344   0.02838   0.02186  -0.1769  0.2500  0.2500  -1.2916   0.0000   0.4605
  -2.500   0.8918   0.02885   0.02233  -0.1771  0.2500  0.2500  -1.3702   0.0000   0.4462
  -2.000   0.9486   0.02933   0.02281  -0.1771  0.2500  0.2500  -1.4511   0.0000   0.4336
  -1.500   1.0049   0.02982   0.02332  -0.1771  0.2500  0.2500  -1.5325   0.0000   0.4223
  -1.000   1.0607   0.03033   0.02384  -0.1770  0.2500  0.2500  -1.6173   0.0000   0.4122
  -0.500   1.1160   0.03085   0.02439  -0.1768  0.2500  0.2500  -1.7071   0.0000   0.4030
   0.000   1.1708   0.03139   0.02495  -0.1765  0.2500  0.2500  -1.7976   0.0000   0.3946
   0.500   1.2248   0.03194   0.02554  -0.1760  0.2489  0.2500  -1.8884   0.0000   0.3869
   1.000   1.2770   0.03254   0.02611  -0.1753  0.2407  0.2500  -1.9803   0.0000   0.3797
   1.500   1.3286   0.03317   0.02674  -0.1745  0.2334  0.2500  -2.0816   0.0000   0.3731
   2.000   1.3785   0.03388   0.02743  -0.1734  0.2250  0.2500  -2.1836   0.0000   0.3668
   2.500   1.4280   0.03461   0.02818  -0.1723  0.2191  0.2500  -2.2864   0.0000   0.3609
   3.000   1.4763   0.03540   0.02897  -0.1709  0.2122  0.2500  -2.3894   0.0000   0.3553
   3.500   1.5238   0.03621   0.02979  -0.1695  0.2052  0.2500  -2.4976   0.0000   0.3499
   4.000   1.5697   0.03708   0.03066  -0.1678  0.1970  0.2500  -2.6113   0.0000   0.3448
   4.500   1.6154   0.03797   0.03157  -0.1661  0.1905  0.2500  -2.7321   0.0000   0.3400
   5.000   1.6586   0.03899   0.03258  -0.1640  0.1825  0.2500  -2.8586   0.0000   0.3352
   5.500   1.7008   0.04009   0.03373  -0.1618  0.1762  0.2500  -2.9871   0.0000   0.3306
   6.000   1.7403   0.04134   0.03500  -0.1593  0.1687  0.2500  -3.1230   0.0000   0.3262
   6.500   1.7788   0.04265   0.03631  -0.1567  0.1600  0.2500  -3.2637   0.0000   0.3218
   7.000   1.8167   0.04400   0.03770  -0.1540  0.1536  0.2500  -3.4119   0.0000   0.3176
   7.500   1.8491   0.04572   0.03944  -0.1507  0.1447  0.2500  -3.5665   0.0000   0.3134
   8.000   1.8809   0.04751   0.04124  -0.1474  0.1364  0.2500  -3.7295   0.0000   0.3093
   8.500   1.9108   0.04947   0.04325  -0.1439  0.1294  0.2500  -3.9075   0.0000   0.3052
   9.000   1.9379   0.05163   0.04545  -0.1403  0.1214  0.2500  -4.0935   0.0000   0.3013
   9.500   1.9594   0.05426   0.04812  -0.1362  0.1128  0.2500  -4.2692   0.0000   0.2973
  10.000   1.9775   0.05724   0.05113  -0.1320  0.1042  0.2500  -4.4390   0.0000   0.2935
  10.500   1.9938   0.06048   0.05443  -0.1279  0.0977  0.2500  -4.6078   0.0000   0.2897
  11.000   2.0057   0.06420   0.05823  -0.1239  0.0911  0.2500  -4.7826   0.0000   0.2861
  11.500   2.0137   0.06842   0.06253  -0.1200  0.0846  0.2500  -4.9497   0.0000   0.2828
  12.000   2.0169   0.07329   0.06749  -0.1165  0.0780  0.2500  -5.1079   0.0000   0.2796
  12.500   2.0171   0.07863   0.07294  -0.1136  0.0724  0.2500  -5.2565   0.0000   0.2768
  13.000   2.0138   0.08447   0.07890  -0.1114  0.0674  0.2500  -5.3929   0.0000   0.2744
  13.500   2.0068   0.09087   0.08543  -0.1100  0.0630  0.2500  -5.5155   0.0000   0.2725
  14.000   1.9958   0.09789   0.09258  -0.1095  0.0588  0.2500  -5.6254   0.0000   0.2710
  14.500   1.9847   0.10506   0.09990  -0.1101  0.0549  0.2500  -5.7302   0.0000   0.2700
  15.000   1.9702   0.11273   0.10772  -0.1117  0.0516  0.2500  -5.8173   0.0000   0.2696
  15.500   1.9519   0.12102   0.11617  -0.1144  0.0487  0.2500  -5.8831   0.0000   0.2699
  16.000   1.9360   0.12908   0.12440  -0.1179  0.0461  0.2500  -5.9588   0.0000   0.2704
  16.500   1.9149   0.13789   0.13338  -0.1225  0.0437  0.2500  -6.0066   0.0000   0.2717
  17.000   1.8960   0.14645   0.14209  -0.1277  0.0411  0.2500  -6.0558   0.0000   0.2732
  17.500   1.8755   0.15528   0.15108  -0.1336  0.0390  0.2500  -6.0896   0.0000   0.2753
  18.000   1.8569   0.16389   0.15984  -0.1400  0.0368  0.2500  -6.1240   0.0000   0.2775
  18.500   1.8421   0.17196   0.16804  -0.1464  0.0349  0.2500  -6.1697   0.0000   0.2797
  19.000   1.8285   0.17983   0.17603  -0.1530  0.0329  0.2500  -6.2150   0.0000   0.2819
  19.500   1.8184   0.18715   0.18347  -0.1594  0.0312  0.2500  -6.2731   0.0000   0.2839
  20.000   1.8079   0.19451   0.19093  -0.1662  0.0294  0.2500  -6.3226   0.0000   0.2862
  20.500   1.8011   0.20120   0.19773  -0.1726  0.0279  0.2500  -6.3888   0.0000   0.2881
  21.000   1.7931   0.20803   0.20467  -0.1794  0.0262  0.2500  -6.4494   0.0000   0.2903
  21.500   1.7876   0.21442   0.21115  -0.1860  0.0248  0.2500  -6.5258   0.0000   0.2922
  22.000   1.7819   0.22083   0.21766  -0.1928  0.0234  0.2500  -6.5950   0.0000   0.2942
  22.500   1.7775   0.22693   0.22386  -0.1995  0.0223  0.2500  -6.6697   0.0000   0.2961
  23.000   1.7744   0.23276   0.22978  -0.2060  0.0211  0.2500  -6.7493   0.0000   0.2978
  23.500   1.7714   0.23851   0.23560  -0.2127  0.0200  0.2500  -6.8255   0.0000   0.2996
  24.000   1.7696   0.24395   0.24113  -0.2192  0.0189  0.2500  -6.9080   0.0000   0.3011
  24.500   1.7643   0.24999   0.24725  -0.2265  0.0177  0.2500  -6.9563   0.0000   0.3034
  25.000   1.7629   0.25519   0.25254  -0.2330  0.0168  0.2500  -7.0345   0.0000   0.3048


