xflr5 v6.47

 Calculated polar for: NACA24018_theta30_Ku4.5_Kl0.5_d0.00_delta0.00

 1 1 Reynolds number fixed          Mach number fixed         

 xtrf =   0.250 (top)        0.250 (bottom)
 Mach =   0.000     Re =     3.500 e 6     Ncrit =   5.000

  alpha     CL        CD       CDp       Cm    Top Xtr Bot Xtr   Cpmin    Chinge    XCp    
 ------- -------- --------- --------- -------- ------- ------- -------- --------- ---------
 -15.000  -1.1360   0.01797   0.01139  -0.0877  0.2500  0.0201  -7.3130   0.0000   0.1499
 -14.500  -1.1071   0.01709   0.01046  -0.0843  0.2500  0.0205  -7.0107   0.0000   0.1518
 -14.000  -1.0785   0.01623   0.00957  -0.0806  0.2500  0.0212  -6.7146   0.0000   0.1540
 -13.500  -1.0481   0.01549   0.00880  -0.0769  0.2500  0.0219  -6.4152   0.0000   0.1561
 -13.000  -1.0159   0.01485   0.00812  -0.0732  0.2500  0.0226  -6.1150   0.0000   0.1580
 -12.500  -0.9820   0.01428   0.00752  -0.0697  0.2500  0.0231  -5.8228   0.0000   0.1598
 -12.000  -0.9476   0.01375   0.00696  -0.0661  0.2500  0.0238  -5.5341   0.0000   0.1617
 -11.500  -0.9128   0.01323   0.00642  -0.0624  0.2500  0.0249  -5.2492   0.0000   0.1637
 -11.000  -0.8761   0.01279   0.00596  -0.0588  0.2500  0.0258  -4.9635   0.0000   0.1654
 -10.500  -0.8381   0.01240   0.00554  -0.0555  0.2500  0.0264  -4.6794   0.0000   0.1670
 -10.000  -0.8006   0.01198   0.00511  -0.0519  0.2500  0.0276  -4.4125   0.0000   0.1689
  -9.500  -0.7623   0.01162   0.00474  -0.0483  0.2500  0.0289  -4.1493   0.0000   0.1707
  -9.000  -0.7238   0.01134   0.00444  -0.0447  0.2500  0.0299  -3.8915   0.0000   0.1728
  -8.500  -0.6869   0.01110   0.00420  -0.0407  0.2500  0.0316  -3.6442   0.0000   0.1758
  -8.000  -0.6448   0.01087   0.00396  -0.0377  0.2500  0.0330  -3.3956   0.0000   0.1769
  -7.500  -0.5999   0.01062   0.00370  -0.0353  0.2500  0.0349  -3.1501   0.0000   0.1769
  -7.000  -0.5537   0.01039   0.00348  -0.0331  0.2500  0.0370  -2.9078   0.0000   0.1762
  -6.500  -0.5066   0.01017   0.00326  -0.0310  0.2500  0.0392  -2.6705   0.0000   0.1749
  -6.000  -0.4585   0.00997   0.00306  -0.0292  0.2500  0.0417  -2.4420   0.0000   0.1726
  -5.500  -0.4100   0.00977   0.00288  -0.0274  0.2500  0.0453  -2.2250   0.0000   0.1696
  -5.000  -0.3608   0.00958   0.00271  -0.0257  0.2500  0.0493  -2.0139   0.0000   0.1650
  -4.500  -0.3108   0.00942   0.00256  -0.0242  0.2500  0.0531  -1.8159   0.0000   0.1582
  -4.000  -0.2605   0.00926   0.00242  -0.0227  0.2500  0.0582  -1.6308   0.0000   0.1484
  -3.500  -0.2098   0.00912   0.00230  -0.0214  0.2500  0.0639  -1.4524   0.0000   0.1332
  -3.000  -0.1589   0.00898   0.00219  -0.0200  0.2500  0.0713  -1.2841   0.0000   0.1078
  -2.500  -0.1079   0.00883   0.00210  -0.0187  0.2500  0.0814  -1.1247   0.0000   0.0580
  -2.000  -0.0568   0.00870   0.00201  -0.0174  0.2500  0.0941  -0.9752   0.0000  -0.0824
  -1.500  -0.0056   0.00856   0.00194  -0.0161  0.2500  0.1102  -0.8368   0.0000  -2.7835
  -1.000   0.0451   0.00841   0.00187  -0.0148  0.2500  0.1342  -0.7997   0.0000   0.5865
   0.000   0.1412   0.00789   0.00172  -0.0111  0.2500  0.2500  -0.9153   0.0000   0.3238
   0.500   0.1953   0.00791   0.00173  -0.0104  0.2500  0.2500  -0.9802   0.0000   0.2968
   1.000   0.2494   0.00793   0.00175  -0.0097  0.2500  0.2500  -1.0473   0.0000   0.2815
   1.500   0.3032   0.00796   0.00178  -0.0091  0.2500  0.2500  -1.1151   0.0000   0.2715
   2.000   0.3569   0.00800   0.00182  -0.0083  0.2500  0.2500  -1.1858   0.0000   0.2645
   2.500   0.4091   0.00809   0.00188  -0.0074  0.2435  0.2500  -1.2591   0.0000   0.2586
   3.000   0.4610   0.00818   0.00196  -0.0063  0.2367  0.2500  -1.3346   0.0000   0.2538
   3.500   0.5124   0.00829   0.00204  -0.0052  0.2301  0.2500  -1.4120   0.0000   0.2498
   4.000   0.5633   0.00841   0.00214  -0.0041  0.2238  0.2500  -1.4922   0.0000   0.2464
   4.500   0.6137   0.00853   0.00225  -0.0028  0.2176  0.2500  -1.5731   0.0000   0.2433
   5.000   0.6637   0.00866   0.00236  -0.0015  0.2117  0.2500  -1.6581   0.0000   0.2405
   5.500   0.7124   0.00881   0.00250  -0.0000  0.2045  0.2500  -1.7430   0.0000   0.2376
   6.000   0.7605   0.00897   0.00265   0.0016  0.1985  0.2500  -1.8324   0.0000   0.2350
   6.500   0.8077   0.00913   0.00281   0.0034  0.1927  0.2500  -1.9262   0.0000   0.2324
   7.000   0.8500   0.00929   0.00296   0.0061  0.1863  0.2500  -2.0161   0.0000   0.2287
   7.500   0.8915   0.00945   0.00312   0.0090  0.1805  0.2500  -2.1082   0.0000   0.2252
   8.000   0.9329   0.00967   0.00333   0.0118  0.1747  0.2500  -2.2072   0.0000   0.2220
   8.500   0.9747   0.00993   0.00359   0.0145  0.1689  0.2500  -2.3085   0.0000   0.2192
   9.000   1.0145   0.01026   0.00390   0.0174  0.1613  0.2500  -2.4131   0.0000   0.2162
   9.500   1.0548   0.01057   0.00422   0.0202  0.1549  0.2500  -2.5196   0.0000   0.2135
  10.000   1.0927   0.01095   0.00459   0.0233  0.1476  0.2500  -2.6355   0.0000   0.2106
  10.500   1.1291   0.01138   0.00501   0.0265  0.1398  0.2500  -2.7541   0.0000   0.2077
  11.000   1.1665   0.01179   0.00542   0.0295  0.1340  0.2500  -2.8850   0.0000   0.2051
  11.500   1.2007   0.01230   0.00592   0.0328  0.1274  0.2500  -3.0191   0.0000   0.2022
  12.000   1.2334   0.01286   0.00649   0.0363  0.1204  0.2500  -3.1526   0.0000   0.1993
  12.500   1.2633   0.01354   0.00715   0.0400  0.1122  0.2500  -3.2868   0.0000   0.1962
  13.000   1.2924   0.01428   0.00789   0.0436  0.1057  0.2500  -3.4393   0.0000   0.1932
  13.500   1.3181   0.01519   0.00879   0.0475  0.0982  0.2500  -3.5879   0.0000   0.1900
  14.000   1.3406   0.01627   0.00987   0.0515  0.0905  0.2500  -3.7461   0.0000   0.1867
  14.500   1.3642   0.01741   0.01102   0.0550  0.0848  0.2500  -3.9098   0.0000   0.1838
  15.000   1.3849   0.01877   0.01240   0.0584  0.0790  0.2500  -4.0739   0.0000   0.1809
  15.500   1.4019   0.02043   0.01408   0.0618  0.0731  0.2500  -4.2330   0.0000   0.1779
  16.000   1.4154   0.02247   0.01613   0.0651  0.0671  0.2500  -4.3867   0.0000   0.1749
  16.500   1.4273   0.02481   0.01850   0.0678  0.0621  0.2500  -4.5417   0.0000   0.1722
  17.000   1.4391   0.02740   0.02114   0.0699  0.0579  0.2500  -4.6981   0.0000   0.1699
  17.500   1.4454   0.03063   0.02442   0.0717  0.0539  0.2500  -4.8450   0.0000   0.1676
  18.000   1.4464   0.03457   0.02841   0.0730  0.0497  0.2500  -4.9777   0.0000   0.1654
  18.500   1.4474   0.03884   0.03276   0.0736  0.0467  0.2500  -5.1117   0.0000   0.1636
  19.000   1.4412   0.04407   0.03807   0.0736  0.0439  0.2500  -5.2214   0.0000   0.1619
  19.500   1.4340   0.04966   0.04377   0.0731  0.0419  0.2500  -5.3254   0.0000   0.1606
  20.000   1.4152   0.05673   0.05095   0.0719  0.0396  0.2500  -5.3842   0.0000   0.1592
  20.500   1.3977   0.06398   0.05832   0.0702  0.0381  0.2500  -5.4429   0.0000   0.1583
  21.000   1.3699   0.07261   0.06709   0.0678  0.0362  0.2500  -5.4573   0.0000   0.1574
  21.500   1.3397   0.08184   0.07645   0.0648  0.0348  0.2500  -5.4551   0.0000   0.1569
  22.000   1.3112   0.09112   0.08587   0.0614  0.0335  0.2500  -5.4522   0.0000   0.1568
  22.500   1.2793   0.10110   0.09597   0.0575  0.0320  0.2500  -5.4276   0.0000   0.1571
  23.000   1.2583   0.10980   0.10478   0.0537  0.0308  0.2500  -5.4443   0.0000   0.1577
  23.500   1.2339   0.11916   0.11427   0.0493  0.0295  0.2500  -5.4394   0.0000   0.1589
  24.000   1.2139   0.12804   0.12325   0.0448  0.0279  0.2500  -5.4466   0.0000   0.1603
  24.500   1.2022   0.13587   0.13117   0.0405  0.0268  0.2500  -5.4907   0.0000   0.1619
  25.000   1.1884   0.14399   0.13937   0.0358  0.0254  0.2500  -5.5223   0.0000   0.1639


