xflr5 v6.47

 Calculated polar for: NACA24018_theta30_Ku4.5_Kl0.5_d0.00_delta0.00

 1 1 Reynolds number fixed          Mach number fixed         

 xtrf =   0.250 (top)        0.250 (bottom)
 Mach =   0.000     Re =     0.200 e 6     Ncrit =   5.000

  alpha     CL        CD       CDp       Cm    Top Xtr Bot Xtr   Cpmin    Chinge    XCp    
 ------- -------- --------- --------- -------- ------- ------- -------- --------- ---------
 -15.000  -0.8342   0.04922   0.04018  -0.0964  0.2500  0.0399  -5.5878   0.0000   0.1078
 -14.500  -0.8358   0.04479   0.03543  -0.0953  0.2500  0.0409  -5.4937   0.0000   0.1105
 -14.000  -0.8307   0.04111   0.03142  -0.0935  0.2500  0.0420  -5.3680   0.0000   0.1131
 -13.500  -0.8146   0.03861   0.02886  -0.0916  0.2500  0.0430  -5.1717   0.0000   0.1142
 -13.000  -0.7984   0.03626   0.02636  -0.0892  0.2500  0.0443  -4.9854   0.0000   0.1158
 -12.500  -0.7798   0.03400   0.02383  -0.0864  0.2500  0.0459  -4.8064   0.0000   0.1175
 -12.000  -0.7569   0.03206   0.02176  -0.0836  0.2500  0.0474  -4.6056   0.0000   0.1186
 -11.500  -0.7322   0.03042   0.02004  -0.0806  0.2500  0.0490  -4.3945   0.0000   0.1196
 -11.000  -0.7049   0.02887   0.01828  -0.0775  0.2500  0.0513  -4.1856   0.0000   0.1203
 -10.500  -0.6768   0.02745   0.01679  -0.0744  0.2500  0.0532  -3.9729   0.0000   0.1210
 -10.000  -0.6470   0.02620   0.01545  -0.0711  0.2500  0.0557  -3.7654   0.0000   0.1215
  -9.500  -0.6159   0.02499   0.01412  -0.0678  0.2500  0.0584  -3.5599   0.0000   0.1218
  -9.000  -0.5849   0.02393   0.01301  -0.0643  0.2500  0.0613  -3.3520   0.0000   0.1224
  -8.500  -0.5528   0.02290   0.01189  -0.0607  0.2500  0.0648  -3.1523   0.0000   0.1230
  -8.000  -0.5210   0.02200   0.01094  -0.0569  0.2500  0.0686  -2.9584   0.0000   0.1240
  -7.500  -0.4897   0.02113   0.01003  -0.0528  0.2500  0.0729  -2.7706   0.0000   0.1258
  -7.000  -0.4576   0.02045   0.00928  -0.0485  0.2500  0.0781  -2.5839   0.0000   0.1278
  -6.500  -0.4273   0.01979   0.00862  -0.0439  0.2500  0.0838  -2.4069   0.0000   0.1315
  -6.000  -0.3935   0.01917   0.00797  -0.0399  0.2500  0.0910  -2.2312   0.0000   0.1332
  -5.500  -0.3576   0.01858   0.00738  -0.0361  0.2500  0.1002  -2.0549   0.0000   0.1337
  -5.000  -0.3206   0.01802   0.00683  -0.0325  0.2500  0.1121  -1.8864   0.0000   0.1334
  -4.500  -0.2824   0.01750   0.00632  -0.0291  0.2500  0.1288  -1.7214   0.0000   0.1319
  -4.000  -0.2452   0.01692   0.00583  -0.0255  0.2500  0.1555  -1.5688   0.0000   0.1308
  -3.500  -0.2115   0.01612   0.00532  -0.0214  0.2500  0.2158  -1.4259   0.0000   0.1340
  -3.000  -0.1696   0.01575   0.00497  -0.0185  0.2500  0.2500  -1.2790   0.0000   0.1256
  -2.500  -0.1214   0.01570   0.00476  -0.0166  0.2500  0.2500  -1.1274   0.0000   0.0960
  -2.000  -0.0730   0.01568   0.00459  -0.0148  0.2500  0.2500  -0.9862   0.0000   0.0261
  -1.500  -0.0245   0.01567   0.00447  -0.0130  0.2500  0.2500  -0.8535   0.0000  -0.3214
  -1.000   0.0239   0.01569   0.00439  -0.0113  0.2500  0.2500  -0.7855   0.0000   0.7406
  -0.500   0.0723   0.01572   0.00434  -0.0095  0.2500  0.2500  -0.8410   0.0000   0.3806
   0.000   0.1206   0.01577   0.00433  -0.0078  0.2500  0.2500  -0.8991   0.0000   0.3093
   0.500   0.1688   0.01584   0.00435  -0.0060  0.2500  0.2500  -0.9577   0.0000   0.2786
   1.000   0.2168   0.01593   0.00440  -0.0043  0.2500  0.2500  -1.0195   0.0000   0.2615
   1.500   0.2644   0.01603   0.00449  -0.0025  0.2500  0.2500  -1.0817   0.0000   0.2503
   2.000   0.3118   0.01616   0.00461  -0.0006  0.2500  0.2500  -1.1459   0.0000   0.2424
   2.500   0.3587   0.01631   0.00476   0.0012  0.2500  0.2500  -1.2119   0.0000   0.2364
   3.000   0.4052   0.01647   0.00495   0.0032  0.2500  0.2500  -1.2812   0.0000   0.2315
   3.500   0.4511   0.01666   0.00516   0.0052  0.2500  0.2500  -1.3509   0.0000   0.2274
   4.000   0.4964   0.01687   0.00542   0.0072  0.2500  0.2500  -1.4233   0.0000   0.2237
   4.500   0.5410   0.01711   0.00570   0.0094  0.2500  0.2500  -1.4966   0.0000   0.2204
   5.000   0.5847   0.01737   0.00603   0.0117  0.2500  0.2500  -1.5716   0.0000   0.2173
   5.500   0.6263   0.01765   0.00638   0.0144  0.2500  0.2500  -1.6470   0.0000   0.2139
   6.000   0.6670   0.01796   0.00677   0.0171  0.2500  0.2500  -1.7235   0.0000   0.2106
   6.500   0.7074   0.01832   0.00723   0.0198  0.2500  0.2500  -1.8044   0.0000   0.2076
   7.000   0.7481   0.01875   0.00776   0.0224  0.2500  0.2500  -1.8883   0.0000   0.2052
   7.500   0.7890   0.01925   0.00837   0.0248  0.2500  0.2500  -1.9734   0.0000   0.2031
   8.000   0.8301   0.01982   0.00905   0.0271  0.2500  0.2500  -2.0629   0.0000   0.2013
   8.500   0.8718   0.02045   0.00980   0.0292  0.2500  0.2500  -2.1579   0.0000   0.1999
   9.000   0.9147   0.02117   0.01064   0.0310  0.2500  0.2500  -2.2560   0.0000   0.1989
   9.500   0.9485   0.02191   0.01139   0.0340  0.2441  0.2500  -2.3499   0.0000   0.1961
  10.000   0.9811   0.02267   0.01232   0.0372  0.2370  0.2500  -2.4447   0.0000   0.1934
  10.500   1.0116   0.02355   0.01323   0.0403  0.2312  0.2500  -2.5476   0.0000   0.1906
  11.000   1.0407   0.02449   0.01436   0.0435  0.2243  0.2500  -2.6501   0.0000   0.1879
  11.500   1.0675   0.02558   0.01549   0.0467  0.2185  0.2500  -2.7570   0.0000   0.1851
  12.000   1.0926   0.02681   0.01692   0.0497  0.2117  0.2500  -2.8690   0.0000   0.1824
  12.500   1.1155   0.02821   0.01837   0.0527  0.2060  0.2500  -2.9791   0.0000   0.1797
  13.000   1.1360   0.02985   0.02024   0.0554  0.1992  0.2500  -3.0861   0.0000   0.1772
  13.500   1.1537   0.03173   0.02219   0.0580  0.1933  0.2500  -3.2028   0.0000   0.1746
  14.000   1.1684   0.03399   0.02466   0.0603  0.1865  0.2500  -3.3158   0.0000   0.1722
  14.500   1.1811   0.03653   0.02730   0.0623  0.1807  0.2500  -3.4283   0.0000   0.1700
  15.000   1.1896   0.03962   0.03060   0.0638  0.1742  0.2500  -3.5364   0.0000   0.1680
  15.500   1.1952   0.04318   0.03430   0.0648  0.1680  0.2500  -3.6409   0.0000   0.1662
  16.000   1.1964   0.04745   0.03873   0.0652  0.1616  0.2500  -3.7331   0.0000   0.1646
  16.500   1.1950   0.05235   0.04383   0.0650  0.1556  0.2500  -3.8180   0.0000   0.1634
  17.000   1.1912   0.05790   0.04951   0.0639  0.1496  0.2500  -3.8953   0.0000   0.1627
  17.500   1.1796   0.06478   0.05661   0.0620  0.1433  0.2500  -3.9459   0.0000   0.1624
  18.000   1.1701   0.07163   0.06356   0.0598  0.1373  0.2500  -4.0021   0.0000   0.1624
  18.500   1.1458   0.08090   0.07309   0.0563  0.1306  0.2500  -4.0027   0.0000   0.1629
  19.000   1.1254   0.08991   0.08225   0.0526  0.1245  0.2500  -4.0111   0.0000   0.1638
  19.500   1.1082   0.09875   0.09120   0.0487  0.1183  0.2500  -4.0274   0.0000   0.1652
  20.000   1.0732   0.11059   0.10327   0.0433  0.1116  0.2500  -3.9643   0.0000   0.1673
  20.500   1.0566   0.11977   0.11255   0.0388  0.1056  0.2500  -3.9677   0.0000   0.1696
  21.000   1.0491   0.12762   0.12048   0.0347  0.0996  0.2500  -4.0068   0.0000   0.1719
  21.500   1.0140   0.14024   0.13329   0.0280  0.0927  0.2500  -3.9082   0.0000   0.1759
  22.000   0.9948   0.15044   0.14360   0.0223  0.0865  0.2500  -3.8684   0.0000   0.1798
  22.500   1.0184   0.15316   0.14630   0.0201  0.0824  0.2500  -4.0478   0.0000   0.1811
  23.000   0.9864   0.16585   0.15915   0.0127  0.0758  0.2500  -3.9231   0.0000   0.1867
  23.500   0.9616   0.17759   0.17100   0.0056  0.0695  0.2500  -3.8131   0.0000   0.1926
  24.500   0.9741   0.18946   0.18298  -0.0031  0.0615  0.2500  -3.9470   0.0000   0.1988
  25.000   0.9502   0.20158   0.19520  -0.0107  0.0556  0.2500  -3.7912   0.0000   0.2059


