xflr5 v6.47

 Calculated polar for: NACA24018_theta30_Ku4.5_Kl0.5_d0.14_delta3.44

 1 1 Reynolds number fixed          Mach number fixed         

 xtrf =   0.250 (top)        0.250 (bottom)
 Mach =   0.000     Re =     1.000 e 6     Ncrit =   5.000

  alpha     CL        CD       CDp       Cm    Top Xtr Bot Xtr   Cpmin    Chinge    XCp    
 ------- -------- --------- --------- -------- ------- ------- -------- --------- ---------
 -15.000  -0.8023   0.02716   0.01995  -0.1167  0.2500  0.0311  -5.8665   0.0000   0.0787
 -14.500  -0.7845   0.02561   0.01834  -0.1134  0.2500  0.0319  -5.6459   0.0000   0.0806
 -14.000  -0.7662   0.02426   0.01691  -0.1097  0.2500  0.0327  -5.4271   0.0000   0.0829
 -13.500  -0.7489   0.02306   0.01563  -0.1055  0.2500  0.0335  -5.2135   0.0000   0.0862
 -13.000  -0.7403   0.02190   0.01442  -0.0995  0.2500  0.0343  -5.0293   0.0000   0.0937
 -12.500  -0.7243   0.02084   0.01331  -0.0945  0.2500  0.0354  -4.8232   0.0000   0.0986
 -12.000  -0.6895   0.01992   0.01234  -0.0924  0.2500  0.0368  -4.5709   0.0000   0.0956
 -11.500  -0.6466   0.01911   0.01146  -0.0914  0.2500  0.0382  -4.3007   0.0000   0.0885
 -11.000  -0.5982   0.01835   0.01068  -0.0913  0.2500  0.0400  -4.0196   0.0000   0.0773
 -10.500  -0.5454   0.01776   0.01003  -0.0917  0.2500  0.0420  -3.7331   0.0000   0.0617
 -10.000  -0.4894   0.01718   0.00943  -0.0927  0.2500  0.0445  -3.4456   0.0000   0.0400
  -9.500  -0.4310   0.01673   0.00893  -0.0938  0.2500  0.0469  -3.1603   0.0000   0.0109
  -9.000  -0.3706   0.01632   0.00851  -0.0953  0.2500  0.0504  -2.8894   0.0000  -0.0299
  -8.500  -0.3087   0.01597   0.00815  -0.0970  0.2500  0.0541  -2.6239   0.0000  -0.0891
  -8.000  -0.2458   0.01570   0.00785  -0.0988  0.2500  0.0585  -2.3751   0.0000  -0.1802
  -7.500  -0.1820   0.01547   0.00762  -0.1007  0.2500  0.0637  -2.1335   0.0000  -0.3375
  -7.000  -0.1172   0.01529   0.00744  -0.1028  0.2500  0.0704  -1.8999   0.0000  -0.6743
  -6.500  -0.0518   0.01515   0.00731  -0.1049  0.2500  0.0781  -1.6820   0.0000  -1.8690
  -6.000   0.0144   0.01504   0.00724  -0.1071  0.2500  0.0891  -1.4730   0.0000   7.9974
  -5.500   0.0808   0.01498   0.00720  -0.1093  0.2500  0.1027  -1.2795   0.0000   1.6488
  -5.000   0.1486   0.01494   0.00723  -0.1118  0.2500  0.1226  -1.0992   0.0000   1.0237
  -4.500   0.2197   0.01491   0.00731  -0.1150  0.2500  0.1569  -0.9214   0.0000   0.7853
  -4.000   0.3026   0.01483   0.00751  -0.1208  0.2500  0.2423  -0.8365   0.0000   0.6557
  -3.500   0.3653   0.01499   0.00764  -0.1220  0.2500  0.2500  -0.9007   0.0000   0.5878
  -3.000   0.4255   0.01518   0.00779  -0.1227  0.2500  0.2500  -0.9679   0.0000   0.5403
  -2.500   0.4852   0.01538   0.00796  -0.1233  0.2500  0.2500  -1.0378   0.0000   0.5045
  -2.000   0.5446   0.01560   0.00816  -0.1239  0.2500  0.2500  -1.1084   0.0000   0.4766
  -1.500   0.6035   0.01583   0.00838  -0.1244  0.2500  0.2500  -1.1796   0.0000   0.4541
  -1.000   0.6619   0.01609   0.00863  -0.1247  0.2500  0.2500  -1.2541   0.0000   0.4356
  -0.500   0.7199   0.01636   0.00891  -0.1250  0.2500  0.2500  -1.3329   0.0000   0.4200
   0.000   0.7774   0.01664   0.00921  -0.1252  0.2500  0.2500  -1.4127   0.0000   0.4067
   0.500   0.8342   0.01694   0.00953  -0.1253  0.2500  0.2500  -1.4947   0.0000   0.3951
   1.000   0.8906   0.01726   0.00988  -0.1253  0.2500  0.2500  -1.5793   0.0000   0.3849
   1.500   0.9463   0.01761   0.01026  -0.1252  0.2500  0.2500  -1.6648   0.0000   0.3758
   2.000   1.0014   0.01798   0.01068  -0.1250  0.2500  0.2500  -1.7560   0.0000   0.3676
   2.500   1.0556   0.01838   0.01113  -0.1246  0.2500  0.2500  -1.8498   0.0000   0.3602
   3.000   1.1082   0.01884   0.01162  -0.1240  0.2446  0.2500  -1.9434   0.0000   0.3534
   3.500   1.1587   0.01940   0.01217  -0.1231  0.2370  0.2500  -2.0402   0.0000   0.3470
   4.000   1.2096   0.01993   0.01274  -0.1222  0.2306  0.2500  -2.1399   0.0000   0.3411
   4.500   1.2584   0.02057   0.01338  -0.1210  0.2231  0.2500  -2.2420   0.0000   0.3356
   5.000   1.3076   0.02118   0.01403  -0.1199  0.2167  0.2500  -2.3526   0.0000   0.3304
   5.500   1.3541   0.02193   0.01478  -0.1184  0.2090  0.2500  -2.4635   0.0000   0.3254
   6.000   1.4000   0.02266   0.01558  -0.1168  0.2030  0.2500  -2.5752   0.0000   0.3206
   6.500   1.4433   0.02355   0.01648  -0.1149  0.1959  0.2500  -2.6937   0.0000   0.3160
   7.000   1.4875   0.02440   0.01739  -0.1132  0.1895  0.2500  -2.8209   0.0000   0.3117
   7.500   1.5273   0.02547   0.01848  -0.1108  0.1816  0.2500  -2.9435   0.0000   0.3073
   8.000   1.5675   0.02652   0.01960  -0.1086  0.1755  0.2500  -3.0751   0.0000   0.3032
   8.500   1.6046   0.02776   0.02088  -0.1060  0.1687  0.2500  -3.2174   0.0000   0.2991
   9.000   1.6392   0.02916   0.02232  -0.1032  0.1604  0.2500  -3.3620   0.0000   0.2951
   9.500   1.6727   0.03066   0.02389  -0.1004  0.1538  0.2500  -3.5185   0.0000   0.2913
  10.000   1.7017   0.03247   0.02575  -0.0972  0.1458  0.2500  -3.6736   0.0000   0.2874
  10.500   1.7293   0.03444   0.02778  -0.0941  0.1381  0.2500  -3.8400   0.0000   0.2837
  11.000   1.7545   0.03666   0.03008  -0.0909  0.1316  0.2500  -4.0100   0.0000   0.2801
  11.500   1.7740   0.03941   0.03289  -0.0876  0.1236  0.2500  -4.1736   0.0000   0.2766
  12.000   1.7911   0.04249   0.03605  -0.0844  0.1161  0.2500  -4.3372   0.0000   0.2733
  12.500   1.8065   0.04586   0.03952  -0.0816  0.1098  0.2500  -4.4990   0.0000   0.2702
  13.000   1.8154   0.04997   0.04373  -0.0790  0.1029  0.2500  -4.6513   0.0000   0.2674
  13.500   1.8187   0.05483   0.04869  -0.0767  0.0964  0.2500  -4.7945   0.0000   0.2648
  14.000   1.8209   0.06002   0.05402  -0.0751  0.0906  0.2500  -4.9365   0.0000   0.2626
  14.500   1.8160   0.06623   0.06037  -0.0742  0.0853  0.2500  -5.0550   0.0000   0.2609
  15.000   1.8032   0.07361   0.06790  -0.0741  0.0801  0.2500  -5.1454   0.0000   0.2597
  15.500   1.7889   0.08143   0.07590  -0.0748  0.0754  0.2500  -5.2265   0.0000   0.2590
  16.000   1.7667   0.09050   0.08514  -0.0767  0.0712  0.2500  -5.2747   0.0000   0.2591
  16.500   1.7406   0.10025   0.09507  -0.0797  0.0673  0.2500  -5.3051   0.0000   0.2600
  17.000   1.7157   0.11005   0.10506  -0.0835  0.0640  0.2500  -5.3306   0.0000   0.2613
  17.500   1.6883   0.12031   0.11549  -0.0884  0.0606  0.2500  -5.3370   0.0000   0.2634
  18.000   1.6669   0.12982   0.12518  -0.0936  0.0575  0.2500  -5.3578   0.0000   0.2656
  18.500   1.6427   0.13984   0.13534  -0.0999  0.0541  0.2500  -5.3570   0.0000   0.2685
  19.000   1.6267   0.14873   0.14437  -0.1059  0.0511  0.2500  -5.3851   0.0000   0.2712
  19.500   1.6113   0.15755   0.15330  -0.1124  0.0482  0.2500  -5.4121   0.0000   0.2741
  20.000   1.6022   0.16541   0.16128  -0.1184  0.0455  0.2500  -5.4711   0.0000   0.2767
  20.500   1.5930   0.17331   0.16929  -0.1249  0.0429  0.2500  -5.5232   0.0000   0.2794
  21.000   1.5864   0.18083   0.17691  -0.1314  0.0402  0.2500  -5.5830   0.0000   0.2821
  21.500   1.5816   0.18804   0.18422  -0.1378  0.0379  0.2500  -5.6480   0.0000   0.2847
  22.000   1.5765   0.19531   0.19157  -0.1446  0.0355  0.2500  -5.7054   0.0000   0.2874
  22.500   1.5747   0.20198   0.19834  -0.1511  0.0335  0.2500  -5.7781   0.0000   0.2898
  23.000   1.5704   0.20906   0.20550  -0.1581  0.0314  0.2500  -5.8297   0.0000   0.2927
  23.500   1.5724   0.21496   0.21150  -0.1642  0.0297  0.2500  -5.9196   0.0000   0.2946
  24.000   1.5704   0.22152   0.21813  -0.1711  0.0279  0.2500  -5.9776   0.0000   0.2972
  24.500   1.5720   0.22740   0.22410  -0.1775  0.0263  0.2500  -6.0583   0.0000   0.2992
  25.000   1.5702   0.23387   0.23063  -0.1847  0.0247  0.2500  -6.1140   0.0000   0.3019


