xflr5 v6.47

 Calculated polar for: NACA24018_theta30_Ku4.5_Kl0.5_d0.24_delta7.31

 1 1 Reynolds number fixed          Mach number fixed         

 xtrf =   0.250 (top)        0.250 (bottom)
 Mach =   0.000     Re =     1.500 e 6     Ncrit =   5.000

  alpha     CL        CD       CDp       Cm    Top Xtr Bot Xtr   Cpmin    Chinge    XCp    
 ------- -------- --------- --------- -------- ------- ------- -------- --------- ---------
 -15.000  -0.6320   0.02967   0.02338  -0.1248  0.2500  0.0343  -5.2116   0.0000   0.0243
 -14.500  -0.5680   0.02917   0.02283  -0.1281  0.2500  0.0358  -4.8453   0.0000  -0.0046
 -14.000  -0.5009   0.02881   0.02241  -0.1317  0.2500  0.0374  -4.4902   0.0000  -0.0436
 -13.500  -0.4322   0.02859   0.02216  -0.1354  0.2500  0.0392  -4.1396   0.0000  -0.0961
 -13.000  -0.3632   0.02851   0.02203  -0.1389  0.2500  0.0411  -3.7979   0.0000  -0.1686
 -12.500  -0.2921   0.02854   0.02203  -0.1427  0.2500  0.0436  -3.4621   0.0000  -0.2801
 -12.000  -0.2211   0.02867   0.02213  -0.1464  0.2500  0.0460  -3.1499   0.0000  -0.4624
 -11.500  -0.1504   0.02888   0.02232  -0.1498  0.2500  0.0491  -2.8481   0.0000  -0.8139
 -11.000  -0.0785   0.02918   0.02260  -0.1534  0.2500  0.0529  -2.5655   0.0000  -1.8237
 -10.500  -0.0066   0.02955   0.02296  -0.1569  0.2500  0.0571  -2.2937   0.0000  -24.8516
 -10.000   0.0648   0.02999   0.02339  -0.1602  0.2500  0.0620  -2.0327   0.0000   2.8422
  -9.500   0.1357   0.03048   0.02388  -0.1634  0.2500  0.0675  -1.7923   0.0000   1.5065
  -9.000   0.2072   0.03105   0.02445  -0.1666  0.2500  0.0751  -1.5656   0.0000   1.0847
  -8.500   0.2788   0.03166   0.02508  -0.1698  0.2500  0.0842  -1.3540   0.0000   0.8794
  -8.000   0.3506   0.03234   0.02577  -0.1730  0.2500  0.0957  -1.1503   0.0000   0.7576
  -7.500   0.4226   0.03308   0.02654  -0.1762  0.2500  0.1107  -0.9646   0.0000   0.6769
  -7.000   0.4964   0.03391   0.02742  -0.1796  0.2500  0.1328  -0.8469   0.0000   0.6191
  -6.500   0.5761   0.03494   0.02856  -0.1842  0.2500  0.1716  -0.9249   0.0000   0.5746
  -6.000   0.6714   0.03647   0.03028  -0.1916  0.2500  0.2500  -1.0168   0.0000   0.5384
  -5.500   0.7296   0.03710   0.03088  -0.1920  0.2500  0.2500  -1.0837   0.0000   0.5149
  -5.000   0.7870   0.03773   0.03148  -0.1922  0.2500  0.2500  -1.1541   0.0000   0.4949
  -4.500   0.8438   0.03835   0.03208  -0.1924  0.2500  0.2500  -1.2281   0.0000   0.4775
  -4.000   0.9001   0.03899   0.03270  -0.1924  0.2500  0.2500  -1.3027   0.0000   0.4624
  -3.500   0.9559   0.03963   0.03334  -0.1924  0.2500  0.2500  -1.3778   0.0000   0.4489
  -3.000   1.0112   0.04028   0.03399  -0.1922  0.2500  0.2500  -1.4566   0.0000   0.4370
  -2.500   1.0661   0.04094   0.03466  -0.1920  0.2500  0.2500  -1.5363   0.0000   0.4262
  -2.000   1.1204   0.04161   0.03534  -0.1916  0.2500  0.2500  -1.6196   0.0000   0.4164
  -1.500   1.1742   0.04229   0.03604  -0.1912  0.2500  0.2500  -1.7078   0.0000   0.4074
  -1.000   1.2275   0.04298   0.03676  -0.1907  0.2500  0.2500  -1.7966   0.0000   0.3992
  -0.500   1.2801   0.04368   0.03749  -0.1900  0.2500  0.2500  -1.8881   0.0000   0.3915
   0.000   1.3315   0.04440   0.03822  -0.1892  0.2454  0.2500  -1.9813   0.0000   0.3844
   0.500   1.3817   0.04515   0.03896  -0.1882  0.2381  0.2500  -2.0779   0.0000   0.3778
   1.000   1.4304   0.04596   0.03975  -0.1869  0.2305  0.2500  -2.1756   0.0000   0.3715
   1.500   1.4781   0.04683   0.04062  -0.1855  0.2225  0.2500  -2.2810   0.0000   0.3656
   2.000   1.5247   0.04774   0.04152  -0.1840  0.2150  0.2500  -2.3866   0.0000   0.3600
   2.500   1.5710   0.04866   0.04246  -0.1823  0.2087  0.2500  -2.4929   0.0000   0.3546
   3.000   1.6158   0.04962   0.04342  -0.1805  0.2020  0.2500  -2.5988   0.0000   0.3495
   3.500   1.6601   0.05061   0.04443  -0.1787  0.1945  0.2500  -2.7139   0.0000   0.3446
   4.000   1.7029   0.05169   0.04552  -0.1766  0.1871  0.2500  -2.8356   0.0000   0.3398
   4.500   1.7443   0.05285   0.04668  -0.1744  0.1790  0.2500  -2.9647   0.0000   0.3352
   5.000   1.7835   0.05419   0.04804  -0.1718  0.1722  0.2500  -3.0948   0.0000   0.3307
   5.500   1.8199   0.05567   0.04953  -0.1690  0.1638  0.2500  -3.2295   0.0000   0.3263
   6.000   1.8574   0.05707   0.05097  -0.1663  0.1572  0.2500  -3.3710   0.0000   0.3221
   6.500   1.8916   0.05869   0.05260  -0.1633  0.1488  0.2500  -3.5279   0.0000   0.3179
   7.000   1.9207   0.06070   0.05462  -0.1597  0.1398  0.2500  -3.6911   0.0000   0.3138
   7.500   1.9505   0.06266   0.05661  -0.1563  0.1318  0.2500  -3.8601   0.0000   0.3097
   8.000   1.9775   0.06484   0.05884  -0.1527  0.1248  0.2500  -4.0347   0.0000   0.3058
   8.500   2.0008   0.06732   0.06136  -0.1488  0.1171  0.2500  -4.2122   0.0000   0.3018
   9.000   2.0189   0.07028   0.06434  -0.1445  0.1081  0.2500  -4.3891   0.0000   0.2980
  10.000   2.0495   0.07686   0.07104  -0.1365  0.0936  0.2500  -4.7529   0.0000   0.2906
  10.500   2.0587   0.08082   0.07506  -0.1325  0.0861  0.2500  -4.9204   0.0000   0.2871
  11.000   2.0632   0.08535   0.07966  -0.1288  0.0791  0.2500  -5.0753   0.0000   0.2839
  11.500   2.0662   0.09014   0.08455  -0.1257  0.0733  0.2500  -5.2264   0.0000   0.2809
  12.000   2.0666   0.09531   0.08982  -0.1233  0.0684  0.2500  -5.3843   0.0000   0.2783
  12.500   2.0640   0.10087   0.09549  -0.1215  0.0637  0.2500  -5.5311   0.0000   0.2760
  13.000   2.0603   0.10662   0.10137  -0.1205  0.0598  0.2500  -5.6717   0.0000   0.2741
  13.500   2.0519   0.11299   0.10787  -0.1204  0.0557  0.2500  -5.7927   0.0000   0.2727
  14.000   2.0397   0.11990   0.11491  -0.1214  0.0515  0.2500  -5.8949   0.0000   0.2718
  14.500   2.0284   0.12679   0.12194  -0.1232  0.0482  0.2500  -5.9955   0.0000   0.2713
  15.000   2.0143   0.13405   0.12936  -0.1259  0.0454  0.2500  -6.0795   0.0000   0.2714
  15.500   1.9974   0.14174   0.13720  -0.1297  0.0425  0.2500  -6.1455   0.0000   0.2719
  16.000   1.9805   0.14948   0.14510  -0.1342  0.0401  0.2500  -6.2047   0.0000   0.2728
  16.500   1.9602   0.15774   0.15351  -0.1396  0.0378  0.2500  -6.2410   0.0000   0.2744
  17.000   1.9439   0.16547   0.16140  -0.1452  0.0360  0.2500  -6.2937   0.0000   0.2759
  17.500   1.9270   0.17326   0.16933  -0.1513  0.0341  0.2500  -6.3432   0.0000   0.2777
  18.000   1.9124   0.18073   0.17694  -0.1576  0.0326  0.2500  -6.3994   0.0000   0.2795
  18.500   1.8981   0.18813   0.18447  -0.1641  0.0308  0.2500  -6.4509   0.0000   0.2815
  19.000   1.8866   0.19506   0.19152  -0.1705  0.0291  0.2500  -6.5121   0.0000   0.2833
  19.500   1.8757   0.20188   0.19844  -0.1771  0.0274  0.2500  -6.5715   0.0000   0.2852
  20.000   1.8668   0.20836   0.20503  -0.1836  0.0259  0.2500  -6.6370   0.0000   0.2870
  20.500   1.8585   0.21469   0.21146  -0.1902  0.0244  0.2500  -6.7021   0.0000   0.2888
  21.000   1.8513   0.22079   0.21766  -0.1967  0.0231  0.2500  -6.7686   0.0000   0.2905
  21.500   1.8477   0.22621   0.22318  -0.2027  0.0219  0.2500  -6.8566   0.0000   0.2917
  22.000   1.8407   0.23214   0.22919  -0.2095  0.0207  0.2500  -6.9159   0.0000   0.2936
  22.500   1.8365   0.23751   0.23466  -0.2158  0.0196  0.2500  -6.9913   0.0000   0.2949
  23.000   1.8298   0.24324   0.24047  -0.2227  0.0184  0.2500  -7.0435   0.0000   0.2968
  23.500   1.8267   0.24822   0.24555  -0.2289  0.0175  0.2500  -7.1274   0.0000   0.2980
  24.000   1.8236   0.25313   0.25053  -0.2352  0.0165  0.2500  -7.2137   0.0000   0.2992
  24.500   1.8175   0.25853   0.25601  -0.2422  0.0157  0.2500  -7.2683   0.0000   0.3011
  25.000   1.8148   0.26319   0.26076  -0.2485  0.0150  0.2500  -7.3513   0.0000   0.3022


