xflr5 v6.47

 Calculated polar for: NACA24018_theta30_Ku4.5_Kl0.5_d0.35_delta13.38

 1 1 Reynolds number fixed          Mach number fixed         

 xtrf =   0.250 (top)        0.250 (bottom)
 Mach =   0.000     Re =     0.700 e 6     Ncrit =   5.000

  alpha     CL        CD       CDp       Cm    Top Xtr Bot Xtr   Cpmin    Chinge    XCp    
 ------- -------- --------- --------- -------- ------- ------- -------- --------- ---------
 -15.000  -0.1006   0.05697   0.05093  -0.1467  0.2500  0.0569  -3.2043   0.0000  -1.3228
 -14.500  -0.0232   0.05804   0.05197  -0.1521  0.2500  0.0602  -2.8818   0.0000  -6.7679
 -14.000   0.0523   0.05930   0.05316  -0.1568  0.2500  0.0639  -2.5746   0.0000   3.4274
 -13.500   0.1249   0.06067   0.05448  -0.1609  0.2500  0.0685  -2.2919   0.0000   1.6043
 -13.000   0.1973   0.06219   0.05596  -0.1647  0.2500  0.0739  -2.0379   0.0000   1.1222
 -12.500   0.2704   0.06389   0.05764  -0.1687  0.2500  0.0805  -1.7903   0.0000   0.8969
 -12.000   0.3443   0.06578   0.05951  -0.1726  0.2500  0.0886  -1.5500   0.0000   0.7665
 -11.500   0.4164   0.06772   0.06145  -0.1761  0.2500  0.0984  -1.3222   0.0000   0.6831
 -11.000   0.4870   0.06972   0.06344  -0.1793  0.2500  0.1107  -1.1092   0.0000   0.6247
 -10.500   0.5619   0.07206   0.06581  -0.1831  0.2500  0.1275  -0.9467   0.0000   0.5797
 -10.000   0.6374   0.07458   0.06836  -0.1870  0.2500  0.1515  -0.9703   0.0000   0.5450
  -9.500   0.7190   0.07761   0.07145  -0.1917  0.2500  0.1870  -0.9985   0.0000   0.5166
  -9.000   0.8176   0.08192   0.07586  -0.1992  0.2500  0.2500  -1.0402   0.0000   0.4920
  -8.500   0.8699   0.08335   0.07723  -0.1990  0.2500  0.2500  -1.1014   0.0000   0.4760
  -8.000   0.9217   0.08478   0.07862  -0.1987  0.2500  0.2500  -1.1671   0.0000   0.4618
  -7.500   0.9728   0.08619   0.08000  -0.1984  0.2500  0.2500  -1.2341   0.0000   0.4491
  -7.000   1.0234   0.08758   0.08137  -0.1979  0.2500  0.2500  -1.3055   0.0000   0.4377
  -6.500   1.0732   0.08897   0.08274  -0.1973  0.2500  0.2500  -1.3783   0.0000   0.4273
  -6.000   1.1218   0.09033   0.08410  -0.1966  0.2500  0.2500  -1.4510   0.0000   0.4178
  -5.500   1.1695   0.09166   0.08543  -0.1957  0.2500  0.2500  -1.5260   0.0000   0.4091
  -5.000   1.2167   0.09297   0.08675  -0.1947  0.2500  0.2500  -1.6047   0.0000   0.4010
  -4.500   1.2634   0.09426   0.08805  -0.1937  0.2500  0.2500  -1.6850   0.0000   0.3935
  -4.000   1.3096   0.09551   0.08934  -0.1925  0.2500  0.2500  -1.7656   0.0000   0.3865
  -3.500   1.3553   0.09675   0.09060  -0.1914  0.2500  0.2500  -1.8523   0.0000   0.3799
  -3.000   1.4008   0.09799   0.09188  -0.1901  0.2500  0.2500  -1.9413   0.0000   0.3736
  -2.500   1.4455   0.09919   0.09313  -0.1888  0.2500  0.2500  -2.0305   0.0000   0.3677
  -2.000   1.4891   0.10035   0.09434  -0.1873  0.2500  0.2500  -2.1193   0.0000   0.3621
  -1.500   1.5320   0.10149   0.09554  -0.1858  0.2500  0.2500  -2.2151   0.0000   0.3568
  -1.000   1.5742   0.10262   0.09674  -0.1841  0.2500  0.2500  -2.3119   0.0000   0.3517
  -0.500   1.6152   0.10374   0.09791  -0.1824  0.2452  0.2500  -2.4093   0.0000   0.3468
   0.000   1.6539   0.10498   0.09915  -0.1804  0.2370  0.2500  -2.5093   0.0000   0.3421
   0.500   1.6913   0.10628   0.10047  -0.1783  0.2301  0.2500  -2.6155   0.0000   0.3376
   1.000   1.7281   0.10756   0.10178  -0.1762  0.2221  0.2500  -2.7224   0.0000   0.3332
   1.500   1.7635   0.10888   0.10310  -0.1739  0.2143  0.2500  -2.8290   0.0000   0.3290
   2.000   1.7985   0.11013   0.10439  -0.1716  0.2068  0.2500  -2.9483   0.0000   0.3249
   2.500   1.8315   0.11146   0.10575  -0.1692  0.1997  0.2500  -3.0677   0.0000   0.3208
   3.000   1.8632   0.11284   0.10716  -0.1667  0.1915  0.2500  -3.1934   0.0000   0.3169
   3.500   1.8923   0.11438   0.10874  -0.1640  0.1846  0.2500  -3.3233   0.0000   0.3131
   4.000   1.9211   0.11588   0.11028  -0.1614  0.1767  0.2500  -3.4655   0.0000   0.3093
   4.500   1.9488   0.11741   0.11185  -0.1587  0.1694  0.2500  -3.6146   0.0000   0.3057
   5.000   1.9715   0.11931   0.11378  -0.1558  0.1608  0.2500  -3.7655   0.0000   0.3021
   5.500   1.9962   0.12102   0.11556  -0.1531  0.1533  0.2500  -3.9324   0.0000   0.2986
   6.000   2.0171   0.12300   0.11758  -0.1503  0.1455  0.2500  -4.0969   0.0000   0.2952
   6.500   2.0344   0.12522   0.11985  -0.1474  0.1374  0.2500  -4.2676   0.0000   0.2919
   7.000   2.0512   0.12744   0.12214  -0.1447  0.1296  0.2500  -4.4432   0.0000   0.2887
   7.500   2.0649   0.12990   0.12466  -0.1420  0.1221  0.2500  -4.6166   0.0000   0.2855
   8.000   2.0745   0.13275   0.12757  -0.1395  0.1149  0.2500  -4.7867   0.0000   0.2826
   8.500   2.0819   0.13578   0.13069  -0.1374  0.1070  0.2500  -4.9509   0.0000   0.2798
   9.000   2.0872   0.13899   0.13398  -0.1355  0.0997  0.2500  -5.1092   0.0000   0.2772
   9.500   2.0903   0.14241   0.13749  -0.1341  0.0931  0.2500  -5.2600   0.0000   0.2748
  10.000   2.0894   0.14623   0.14141  -0.1333  0.0868  0.2500  -5.3969   0.0000   0.2727
  10.500   2.0857   0.15030   0.14559  -0.1331  0.0809  0.2500  -5.5224   0.0000   0.2709
  11.000   2.0812   0.15443   0.14984  -0.1335  0.0753  0.2500  -5.6505   0.0000   0.2693
  11.500   2.0734   0.15892   0.15446  -0.1346  0.0699  0.2500  -5.7661   0.0000   0.2682
  12.000   2.0632   0.16364   0.15931  -0.1366  0.0649  0.2500  -5.8687   0.0000   0.2674
  12.500   2.0498   0.16874   0.16453  -0.1394  0.0605  0.2500  -5.9541   0.0000   0.2671
  13.000   2.0371   0.17376   0.16971  -0.1427  0.0566  0.2500  -6.0466   0.0000   0.2670
  13.500   2.0237   0.17889   0.17499  -0.1466  0.0531  0.2500  -6.1305   0.0000   0.2671
  14.000   2.0076   0.18434   0.18058  -0.1513  0.0498  0.2500  -6.1967   0.0000   0.2677
  14.500   1.9931   0.18963   0.18601  -0.1561  0.0466  0.2500  -6.2651   0.0000   0.2683
  15.000   1.9789   0.19488   0.19139  -0.1612  0.0435  0.2500  -6.3300   0.0000   0.2691
  15.500   1.9635   0.20028   0.19691  -0.1669  0.0405  0.2500  -6.3828   0.0000   0.2701
  16.000   1.9516   0.20519   0.20194  -0.1721  0.0377  0.2500  -6.4508   0.0000   0.2709
  16.500   1.9396   0.21010   0.20696  -0.1776  0.0353  0.2500  -6.5131   0.0000   0.2718
  17.000   1.9280   0.21490   0.21186  -0.1832  0.0330  0.2500  -6.5738   0.0000   0.2727
  17.500   1.9191   0.21927   0.21635  -0.1884  0.0310  0.2500  -6.6467   0.0000   0.2733


