xflr5 v6.47

 Calculated polar for: NACA24018_theta30_Ku4.5_Kl0.5_d0.10_delta2.45

 1 1 Reynolds number fixed          Mach number fixed         

 xtrf =   0.250 (top)        0.250 (bottom)
 Mach =   0.000     Re =     0.200 e 6     Ncrit =   5.000

  alpha     CL        CD       CDp       Cm    Top Xtr Bot Xtr   Cpmin    Chinge    XCp    
 ------- -------- --------- --------- -------- ------- ------- -------- --------- ---------
 -15.000  -0.6700   0.04472   0.03554  -0.1216  0.2500  0.0452  -5.0610   0.0000   0.0389
 -14.500  -0.6608   0.04135   0.03191  -0.1204  0.2500  0.0465  -4.9271   0.0000   0.0394
 -14.000  -0.6427   0.03899   0.02948  -0.1189  0.2500  0.0477  -4.7383   0.0000   0.0375
 -13.500  -0.6246   0.03668   0.02702  -0.1169  0.2500  0.0491  -4.5581   0.0000   0.0362
 -13.000  -0.6048   0.03453   0.02462  -0.1145  0.2500  0.0510  -4.3797   0.0000   0.0349
 -12.500  -0.5828   0.03275   0.02276  -0.1118  0.2500  0.0526  -4.1899   0.0000   0.0331
 -12.000  -0.5606   0.03121   0.02113  -0.1088  0.2500  0.0546  -4.0003   0.0000   0.0316
 -11.500  -0.5365   0.02975   0.01949  -0.1055  0.2500  0.0571  -3.8155   0.0000   0.0296
 -11.000  -0.5137   0.02842   0.01813  -0.1019  0.2500  0.0592  -3.6266   0.0000   0.0287
 -10.500  -0.4911   0.02726   0.01689  -0.0978  0.2500  0.0619  -3.4414   0.0000   0.0284
 -10.000  -0.4694   0.02615   0.01569  -0.0932  0.2500  0.0647  -3.2689   0.0000   0.0296
  -9.500  -0.4527   0.02517   0.01469  -0.0877  0.2500  0.0676  -3.1083   0.0000   0.0353
  -9.000  -0.4278   0.02423   0.01364  -0.0833  0.2500  0.0714  -2.9354   0.0000   0.0348
  -8.500  -0.4000   0.02322   0.01264  -0.0795  0.2500  0.0752  -2.7537   0.0000   0.0311
  -8.000  -0.3666   0.02231   0.01167  -0.0764  0.2500  0.0803  -2.5734   0.0000   0.0214
  -7.500  -0.3293   0.02147   0.01080  -0.0740  0.2500  0.0864  -2.3879   0.0000   0.0049
  -7.000  -0.2887   0.02065   0.00997  -0.0721  0.2500  0.0938  -2.1991   0.0000  -0.0209
  -6.500  -0.2442   0.01992   0.00923  -0.0708  0.2500  0.1034  -2.0072   0.0000  -0.0623
  -6.000  -0.1965   0.01926   0.00858  -0.0701  0.2500  0.1165  -1.8173   0.0000  -0.1312
  -5.500  -0.1459   0.01865   0.00800  -0.0698  0.2500  0.1354  -1.6365   0.0000  -0.2574
  -5.000  -0.0921   0.01801   0.00748  -0.0702  0.2500  0.1682  -1.4604   0.0000  -0.5527
  -4.500  -0.0315   0.01716   0.00697  -0.0723  0.2500  0.2500  -1.2874   0.0000  -2.1477
  -4.000   0.0234   0.01715   0.00678  -0.0721  0.2500  0.2500  -1.1274   0.0000   3.4439
  -3.500   0.0781   0.01719   0.00666  -0.0718  0.2500  0.2500  -0.9792   0.0000   1.1957
  -3.000   0.1327   0.01725   0.00661  -0.0715  0.2500  0.2500  -0.8365   0.0000   0.8005
  -2.500   0.1872   0.01735   0.00661  -0.0713  0.2500  0.2500  -0.8264   0.0000   0.6359
  -2.000   0.2414   0.01748   0.00665  -0.0709  0.2500  0.2500  -0.8866   0.0000   0.5456
  -1.500   0.2955   0.01764   0.00675  -0.0706  0.2500  0.2500  -0.9473   0.0000   0.4885
  -1.000   0.3491   0.01782   0.00689  -0.0702  0.2500  0.2500  -1.0114   0.0000   0.4490
  -0.500   0.4024   0.01804   0.00708  -0.0697  0.2500  0.2500  -1.0781   0.0000   0.4200
   0.000   0.4553   0.01828   0.00731  -0.0692  0.2500  0.2500  -1.1462   0.0000   0.3978
   0.500   0.5075   0.01856   0.00759  -0.0686  0.2500  0.2500  -1.2145   0.0000   0.3801
   1.000   0.5591   0.01887   0.00792  -0.0679  0.2500  0.2500  -1.2863   0.0000   0.3656
   1.500   0.6101   0.01921   0.00829  -0.0671  0.2500  0.2500  -1.3586   0.0000   0.3535
   2.000   0.6606   0.01958   0.00871  -0.0663  0.2500  0.2500  -1.4329   0.0000   0.3431
   2.500   0.7105   0.02000   0.00919  -0.0654  0.2500  0.2500  -1.5109   0.0000   0.3341
   3.000   0.7595   0.02045   0.00971  -0.0644  0.2500  0.2500  -1.5911   0.0000   0.3262
   3.500   0.8076   0.02095   0.01029  -0.0632  0.2500  0.2500  -1.6712   0.0000   0.3191
   4.000   0.8549   0.02149   0.01093  -0.0620  0.2500  0.2500  -1.7532   0.0000   0.3127
   4.500   0.9016   0.02208   0.01163  -0.0608  0.2500  0.2500  -1.8392   0.0000   0.3069
   5.000   0.9472   0.02273   0.01239  -0.0594  0.2500  0.2500  -1.9274   0.0000   0.3016
   5.500   0.9920   0.02344   0.01323  -0.0579  0.2500  0.2500  -2.0154   0.0000   0.2966
   6.000   1.0363   0.02420   0.01412  -0.0565  0.2500  0.2500  -2.1082   0.0000   0.2921
   6.500   1.0801   0.02504   0.01509  -0.0550  0.2500  0.2500  -2.2056   0.0000   0.2878
   7.000   1.1237   0.02593   0.01613  -0.0536  0.2500  0.2500  -2.3034   0.0000   0.2839
   7.500   1.1684   0.02688   0.01722  -0.0524  0.2500  0.2500  -2.4078   0.0000   0.2803
   8.000   1.2083   0.02794   0.01846  -0.0506  0.2457  0.2500  -2.5134   0.0000   0.2766
   8.500   1.2409   0.02920   0.01986  -0.0481  0.2388  0.2500  -2.6160   0.0000   0.2727
   9.000   1.2716   0.03061   0.02141  -0.0455  0.2320  0.2500  -2.7165   0.0000   0.2689
   9.500   1.2997   0.03219   0.02315  -0.0428  0.2251  0.2500  -2.8235   0.0000   0.2652
  10.000   1.3264   0.03396   0.02506  -0.0403  0.2190  0.2500  -2.9329   0.0000   0.2617
  10.500   1.3498   0.03597   0.02727  -0.0377  0.2121  0.2500  -3.0472   0.0000   0.2584
  11.000   1.3709   0.03826   0.02970  -0.0354  0.2059  0.2500  -3.1613   0.0000   0.2552
  11.500   1.3890   0.04088   0.03253  -0.0332  0.1990  0.2500  -3.2732   0.0000   0.2523
  12.000   1.4046   0.04384   0.03564  -0.0313  0.1930  0.2500  -3.3879   0.0000   0.2496
  12.500   1.4168   0.04726   0.03930  -0.0297  0.1862  0.2500  -3.5022   0.0000   0.2473
  13.000   1.4256   0.05115   0.04335  -0.0285  0.1800  0.2500  -3.6133   0.0000   0.2452
  13.500   1.4305   0.05566   0.04810  -0.0279  0.1733  0.2500  -3.7144   0.0000   0.2435
  14.000   1.4324   0.06071   0.05334  -0.0278  0.1671  0.2500  -3.8119   0.0000   0.2422
  14.500   1.4295   0.06657   0.05943  -0.0285  0.1605  0.2500  -3.8971   0.0000   0.2414
  15.000   1.4235   0.07305   0.06613  -0.0298  0.1544  0.2500  -3.9740   0.0000   0.2412
  15.500   1.4133   0.08032   0.07360  -0.0319  0.1480  0.2500  -4.0345   0.0000   0.2415
  16.000   1.3987   0.08843   0.08197  -0.0349  0.1418  0.2500  -4.0773   0.0000   0.2425
  16.500   1.3855   0.09651   0.09019  -0.0383  0.1356  0.2500  -4.1225   0.0000   0.2438
  17.000   1.3621   0.10634   0.10031  -0.0433  0.1290  0.2500  -4.1217   0.0000   0.2465
  17.500   1.3505   0.11449   0.10856  -0.0477  0.1229  0.2500  -4.1594   0.0000   0.2486
  18.000   1.3265   0.12482   0.11913  -0.0542  0.1161  0.2500  -4.1382   0.0000   0.2526
  18.500   1.3084   0.13432   0.12880  -0.0605  0.1097  0.2500  -4.1341   0.0000   0.2566
  19.000   1.3104   0.14055   0.13506  -0.0648  0.1038  0.2500  -4.2143   0.0000   0.2583
  19.500   1.2826   0.15202   0.14679  -0.0734  0.0969  0.2500  -4.1437   0.0000   0.2647
  20.000   1.2719   0.16065   0.15555  -0.0802  0.0908  0.2500  -4.1471   0.0000   0.2690
  20.500   1.2842   0.16514   0.16004  -0.0839  0.0858  0.2500  -4.2757   0.0000   0.2698
  21.000   1.2602   0.17639   0.17150  -0.0934  0.0793  0.2500  -4.1909   0.0000   0.2771
  21.500   1.2499   0.18526   0.18050  -0.1011  0.0736  0.2500  -4.1741   0.0000   0.2824
  22.000   1.2716   0.18789   0.18311  -0.1038  0.0700  0.2500  -4.3593   0.0000   0.2815
  22.500   1.2496   0.19922   0.19463  -0.1140  0.0641  0.2500  -4.2441   0.0000   0.2897
  23.000   1.2317   0.21004   0.20559  -0.1240  0.0584  0.2500  -4.1288   0.0000   0.2977
  23.500   1.2388   0.21559   0.21120  -0.1296  0.0549  0.2500  -4.1940   0.0000   0.3000
  24.000   1.2393   0.22260   0.21830  -0.1366  0.0509  0.2500  -4.1977   0.0000   0.3040


