xflr5 v6.47

 Calculated polar for: NACA24018_theta30_Ku4.5_Kl0.5_d0.31_delta11.03

 1 1 Reynolds number fixed          Mach number fixed         

 xtrf =   0.250 (top)        0.250 (bottom)
 Mach =   0.000     Re =     0.600 e 6     Ncrit =   5.000

  alpha     CL        CD       CDp       Cm    Top Xtr Bot Xtr   Cpmin    Chinge    XCp    
 ------- -------- --------- --------- -------- ------- ------- -------- --------- ---------
 -15.000  -0.3516   0.04627   0.03975  -0.1293  0.2500  0.0497  -4.0576   0.0000  -0.1584
 -14.500  -0.2794   0.04620   0.03961  -0.1345  0.2500  0.0522  -3.7116   0.0000  -0.2785
 -14.000  -0.2057   0.04640   0.03974  -0.1395  0.2500  0.0551  -3.3716   0.0000  -0.4872
 -13.500  -0.1326   0.04684   0.04011  -0.1441  0.2500  0.0584  -3.0536   0.0000  -0.9207
 -13.000  -0.0572   0.04750   0.04073  -0.1490  0.2500  0.0622  -2.7527   0.0000  -2.5329
 -12.500   0.0170   0.04832   0.04150  -0.1534  0.2500  0.0668  -2.4679   0.0000   9.7891
 -12.000   0.0899   0.04926   0.04239  -0.1573  0.2500  0.0722  -2.1951   0.0000   2.0905
 -11.500   0.1635   0.05036   0.04345  -0.1613  0.2500  0.0786  -1.9384   0.0000   1.2813
 -11.000   0.2384   0.05162   0.04470  -0.1655  0.2500  0.0867  -1.6922   0.0000   0.9709
 -10.500   0.3129   0.05301   0.04609  -0.1694  0.2500  0.0968  -1.4568   0.0000   0.8091
 -10.000   0.3871   0.05451   0.04759  -0.1732  0.2500  0.1097  -1.2414   0.0000   0.7095
  -9.500   0.4637   0.05621   0.04932  -0.1774  0.2500  0.1273  -1.0406   0.0000   0.6407
  -9.000   0.5428   0.05816   0.05131  -0.1819  0.2500  0.1537  -0.8578   0.0000   0.5903
  -8.500   0.6337   0.06081   0.05405  -0.1884  0.2500  0.2022  -0.9023   0.0000   0.5502
  -8.000   0.7219   0.06355   0.05686  -0.1942  0.2500  0.2500  -0.9885   0.0000   0.5202
  -7.500   0.7774   0.06477   0.05802  -0.1944  0.2500  0.2500  -1.0530   0.0000   0.4999
  -7.000   0.8321   0.06598   0.05918  -0.1944  0.2500  0.2500  -1.1185   0.0000   0.4824
  -6.500   0.8860   0.06718   0.06035  -0.1943  0.2500  0.2500  -1.1895   0.0000   0.4670
  -6.000   0.9395   0.06840   0.06154  -0.1942  0.2500  0.2500  -1.2614   0.0000   0.4533
  -5.500   0.9921   0.06960   0.06272  -0.1938  0.2500  0.2500  -1.3334   0.0000   0.4411
  -5.000   1.0439   0.07079   0.06391  -0.1933  0.2500  0.2500  -1.4055   0.0000   0.4301
  -4.500   1.0949   0.07198   0.06510  -0.1928  0.2500  0.2500  -1.4817   0.0000   0.4201
  -4.000   1.1452   0.07316   0.06630  -0.1920  0.2500  0.2500  -1.5613   0.0000   0.4110
  -3.500   1.1949   0.07435   0.06751  -0.1912  0.2500  0.2500  -1.6423   0.0000   0.4025
  -3.000   1.2439   0.07555   0.06873  -0.1903  0.2500  0.2500  -1.7264   0.0000   0.3947
  -2.500   1.2918   0.07676   0.06998  -0.1892  0.2500  0.2500  -1.8104   0.0000   0.3874
  -2.000   1.3390   0.07801   0.07128  -0.1881  0.2500  0.2500  -1.8952   0.0000   0.3806
  -1.500   1.3854   0.07925   0.07258  -0.1868  0.2500  0.2500  -1.9876   0.0000   0.3742
  -1.000   1.4310   0.08047   0.07386  -0.1854  0.2500  0.2500  -2.0800   0.0000   0.3682
  -0.500   1.4759   0.08168   0.07515  -0.1839  0.2500  0.2500  -2.1739   0.0000   0.3624
   0.000   1.5199   0.08289   0.07643  -0.1823  0.2500  0.2500  -2.2708   0.0000   0.3570
   0.500   1.5632   0.08409   0.07772  -0.1806  0.2500  0.2500  -2.3677   0.0000   0.3518
   1.000   1.6033   0.08546   0.07909  -0.1786  0.2417  0.2500  -2.4707   0.0000   0.3468
   1.500   1.6438   0.08677   0.08045  -0.1766  0.2347  0.2500  -2.5758   0.0000   0.3420
   2.000   1.6808   0.08829   0.08198  -0.1743  0.2262  0.2500  -2.6829   0.0000   0.3374
   2.500   1.7179   0.08979   0.08354  -0.1720  0.2191  0.2500  -2.7951   0.0000   0.3329
   3.000   1.7528   0.09139   0.08517  -0.1695  0.2115  0.2500  -2.9068   0.0000   0.3285
   3.500   1.7879   0.09291   0.08675  -0.1671  0.2044  0.2500  -3.0317   0.0000   0.3244
   4.000   1.8200   0.09461   0.08849  -0.1645  0.1968  0.2500  -3.1545   0.0000   0.3203
   4.500   1.8507   0.09640   0.09037  -0.1617  0.1898  0.2500  -3.2885   0.0000   0.3163
   5.000   1.8785   0.09838   0.09237  -0.1588  0.1815  0.2500  -3.4265   0.0000   0.3124
   5.500   1.9077   0.10020   0.09428  -0.1561  0.1746  0.2500  -3.5809   0.0000   0.3086
   6.000   1.9304   0.10254   0.09667  -0.1530  0.1666  0.2500  -3.7279   0.0000   0.3049
   6.500   1.9554   0.10465   0.09886  -0.1502  0.1589  0.2500  -3.8955   0.0000   0.3013
   7.000   1.9754   0.10721   0.10150  -0.1473  0.1518  0.2500  -4.0560   0.0000   0.2978
   7.500   1.9924   0.10999   0.10434  -0.1443  0.1435  0.2500  -4.2144   0.0000   0.2945
   8.000   2.0097   0.11273   0.10719  -0.1416  0.1360  0.2500  -4.3874   0.0000   0.2912
   8.500   2.0216   0.11599   0.11052  -0.1390  0.1285  0.2500  -4.5484   0.0000   0.2882
   9.000   2.0304   0.11955   0.11417  -0.1367  0.1207  0.2500  -4.7020   0.0000   0.2853
   9.500   2.0397   0.12304   0.11778  -0.1348  0.1139  0.2500  -4.8726   0.0000   0.2826
  10.000   2.0434   0.12710   0.12195  -0.1333  0.1073  0.2500  -5.0268   0.0000   0.2802
  10.500   2.0434   0.13155   0.12650  -0.1324  0.1002  0.2500  -5.1681   0.0000   0.2781
  11.000   2.0436   0.13602   0.13109  -0.1320  0.0936  0.2500  -5.3084   0.0000   0.2763
  11.500   2.0401   0.14087   0.13607  -0.1324  0.0878  0.2500  -5.4335   0.0000   0.2749
  12.000   2.0322   0.14622   0.14156  -0.1337  0.0822  0.2500  -5.5398   0.0000   0.2739
  12.500   2.0241   0.15164   0.14713  -0.1357  0.0767  0.2500  -5.6441   0.0000   0.2733
  13.000   2.0133   0.15740   0.15304  -0.1385  0.0717  0.2500  -5.7355   0.0000   0.2731
  13.500   1.9990   0.16363   0.15941  -0.1424  0.0670  0.2500  -5.8105   0.0000   0.2735
  14.000   1.9850   0.16981   0.16574  -0.1467  0.0624  0.2500  -5.8816   0.0000   0.2741
  14.500   1.9715   0.17595   0.17203  -0.1514  0.0585  0.2500  -5.9491   0.0000   0.2748
  15.000   1.9545   0.18257   0.17878  -0.1570  0.0549  0.2500  -6.0006   0.0000   0.2762
  15.500   1.9423   0.18854   0.18489  -0.1623  0.0512  0.2500  -6.0720   0.0000   0.2772
  16.000   1.9298   0.19453   0.19101  -0.1680  0.0481  0.2500  -6.1372   0.0000   0.2784
  16.500   1.9172   0.20055   0.19714  -0.1740  0.0449  0.2500  -6.1955   0.0000   0.2798
  17.000   1.9085   0.20592   0.20263  -0.1794  0.0422  0.2500  -6.2728   0.0000   0.2808
  17.500   1.8973   0.21162   0.20843  -0.1856  0.0395  0.2500  -6.3293   0.0000   0.2823
  18.000   1.8907   0.21656   0.21349  -0.1910  0.0369  0.2500  -6.4110   0.0000   0.2831
  18.500   1.8822   0.22175   0.21877  -0.1970  0.0346  0.2500  -6.4758   0.0000   0.2844
  19.000   1.8752   0.22662   0.22374  -0.2028  0.0324  0.2500  -6.5472   0.0000   0.2854
  19.500   1.8692   0.23128   0.22850  -0.2085  0.0304  0.2500  -6.6212   0.0000   0.2863
  20.000   1.8636   0.23577   0.23307  -0.2141  0.0284  0.2500  -6.6954   0.0000   0.2872
  20.500   1.8586   0.24009   0.23748  -0.2197  0.0267  0.2500  -6.7704   0.0000   0.2880


