xflr5 v6.47

 Calculated polar for: NACA24018_theta30_Ku4.5_Kl0.5_d0.24_delta7.31

 1 1 Reynolds number fixed          Mach number fixed         

 xtrf =   0.250 (top)        0.250 (bottom)
 Mach =   0.000     Re =     1.750 e 6     Ncrit =   5.000

  alpha     CL        CD       CDp       Cm    Top Xtr Bot Xtr   Cpmin    Chinge    XCp    
 ------- -------- --------- --------- -------- ------- ------- -------- --------- ---------
 -15.000  -0.6182   0.02906   0.02288  -0.1282  0.2500  0.0335  -5.1773   0.0000   0.0139
 -14.500  -0.5521   0.02864   0.02242  -0.1318  0.2500  0.0350  -4.8057   0.0000  -0.0185
 -14.000  -0.4852   0.02839   0.02212  -0.1351  0.2500  0.0364  -4.4505   0.0000  -0.0600
 -13.500  -0.4153   0.02823   0.02194  -0.1390  0.2500  0.0384  -4.0969   0.0000  -0.1187
 -13.000  -0.3461   0.02822   0.02189  -0.1424  0.2500  0.0403  -3.7550   0.0000  -0.1994
 -12.500  -0.2741   0.02830   0.02194  -0.1463  0.2500  0.0428  -3.4198   0.0000  -0.3280
 -12.000  -0.2044   0.02848   0.02209  -0.1496  0.2500  0.0449  -3.1114   0.0000  -0.5366
 -11.500  -0.1324   0.02874   0.02233  -0.1533  0.2500  0.0482  -2.8085   0.0000  -0.9848
 -11.000  -0.0606   0.02906   0.02265  -0.1568  0.2500  0.0518  -2.5283   0.0000  -2.4914
 -10.500   0.0107   0.02946   0.02303  -0.1601  0.2500  0.0559  -2.2587   0.0000  16.0258
 -10.000   0.0815   0.02992   0.02348  -0.1633  0.2500  0.0606  -2.0000   0.0000   2.3504
  -9.500   0.1519   0.03043   0.02398  -0.1663  0.2500  0.0660  -1.7625   0.0000   1.3916
  -9.000   0.2234   0.03101   0.02457  -0.1695  0.2500  0.0731  -1.5386   0.0000   1.0377
  -8.500   0.2955   0.03165   0.02523  -0.1728  0.2500  0.0824  -1.3269   0.0000   0.8542
  -8.000   0.3664   0.03232   0.02592  -0.1758  0.2500  0.0933  -1.1256   0.0000   0.7435
  -7.500   0.4380   0.03306   0.02669  -0.1789  0.2500  0.1075  -0.9435   0.0000   0.6682
  -7.000   0.5110   0.03388   0.02756  -0.1822  0.2500  0.1283  -0.8566   0.0000   0.6136
  -6.000   0.6774   0.03622   0.03015  -0.1925  0.2500  0.2272  -1.0212   0.0000   0.5373
  -5.500   0.7456   0.03712   0.03108  -0.1948  0.2500  0.2500  -1.0955   0.0000   0.5130
  -5.000   0.8028   0.03775   0.03167  -0.1950  0.2500  0.2500  -1.1666   0.0000   0.4935
  -4.500   0.8594   0.03837   0.03228  -0.1951  0.2500  0.2500  -1.2408   0.0000   0.4765
  -4.000   0.9156   0.03899   0.03289  -0.1951  0.2500  0.2500  -1.3154   0.0000   0.4617
  -3.500   0.9713   0.03962   0.03351  -0.1950  0.2500  0.2500  -1.3908   0.0000   0.4485
  -3.000   1.0265   0.04026   0.03416  -0.1948  0.2500  0.2500  -1.4701   0.0000   0.4367
  -2.500   1.0813   0.04091   0.03481  -0.1946  0.2500  0.2500  -1.5499   0.0000   0.4260
  -2.000   1.1356   0.04156   0.03548  -0.1942  0.2500  0.2500  -1.6343   0.0000   0.4164
  -1.500   1.1895   0.04223   0.03617  -0.1938  0.2500  0.2500  -1.7228   0.0000   0.4075
  -1.000   1.2428   0.04291   0.03687  -0.1933  0.2500  0.2500  -1.8119   0.0000   0.3993
  -0.500   1.2952   0.04360   0.03756  -0.1926  0.2467  0.2500  -1.9039   0.0000   0.3918
   0.000   1.3464   0.04429   0.03825  -0.1917  0.2402  0.2500  -1.9973   0.0000   0.3848
   0.500   1.3962   0.04501   0.03894  -0.1906  0.2316  0.2500  -2.0942   0.0000   0.3782
   1.000   1.4458   0.04576   0.03970  -0.1895  0.2251  0.2500  -2.1943   0.0000   0.3719
   1.500   1.4934   0.04659   0.04050  -0.1880  0.2160  0.2500  -2.2998   0.0000   0.3661
   2.000   1.5403   0.04747   0.04140  -0.1865  0.2100  0.2500  -2.4061   0.0000   0.3604
   2.500   1.5858   0.04841   0.04232  -0.1848  0.2028  0.2500  -2.5118   0.0000   0.3551
   3.000   1.6315   0.04934   0.04327  -0.1831  0.1971  0.2500  -2.6192   0.0000   0.3500
   3.500   1.6750   0.05034   0.04426  -0.1810  0.1883  0.2500  -2.7348   0.0000   0.3451
   4.000   1.7185   0.05137   0.04530  -0.1791  0.1815  0.2500  -2.8592   0.0000   0.3403
   4.500   1.7600   0.05249   0.04642  -0.1768  0.1736  0.2500  -2.9888   0.0000   0.3357
   5.000   1.7997   0.05373   0.04767  -0.1743  0.1658  0.2500  -3.1215   0.0000   0.3313
   5.500   1.8374   0.05514   0.04911  -0.1716  0.1593  0.2500  -3.2587   0.0000   0.3269
   6.000   1.8726   0.05666   0.05062  -0.1686  0.1505  0.2500  -3.3988   0.0000   0.3226
   6.500   1.9071   0.05822   0.05220  -0.1655  0.1421  0.2500  -3.5593   0.0000   0.3184
   7.000   1.9386   0.06003   0.05402  -0.1622  0.1337  0.2500  -3.7287   0.0000   0.3143
   7.500   1.9673   0.06204   0.05606  -0.1586  0.1262  0.2500  -3.8963   0.0000   0.3102
   8.000   1.9944   0.06416   0.05820  -0.1549  0.1182  0.2500  -4.0747   0.0000   0.3063
   8.500   2.0157   0.06678   0.06084  -0.1507  0.1095  0.2500  -4.2486   0.0000   0.3023
   9.000   2.0351   0.06958   0.06366  -0.1465  0.1008  0.2500  -4.4330   0.0000   0.2984
   9.500   2.0543   0.07247   0.06661  -0.1426  0.0944  0.2500  -4.6251   0.0000   0.2946
  10.000   2.0673   0.07595   0.07014  -0.1383  0.0869  0.2500  -4.8032   0.0000   0.2910
  10.500   2.0747   0.08002   0.07426  -0.1341  0.0792  0.2500  -4.9673   0.0000   0.2874
  11.000   2.0809   0.08432   0.07864  -0.1303  0.0732  0.2500  -5.1282   0.0000   0.2841
  11.500   2.0841   0.08906   0.08347  -0.1270  0.0681  0.2500  -5.2857   0.0000   0.2811
  12.000   2.0842   0.09422   0.08872  -0.1243  0.0633  0.2500  -5.4447   0.0000   0.2783
  12.500   2.0846   0.09941   0.09403  -0.1223  0.0592  0.2500  -5.6034   0.0000   0.2759
  13.000   2.0798   0.10521   0.09995  -0.1210  0.0550  0.2500  -5.7426   0.0000   0.2739
  13.500   2.0704   0.11164   0.10649  -0.1207  0.0507  0.2500  -5.8624   0.0000   0.2724
  14.000   2.0598   0.11832   0.11330  -0.1213  0.0471  0.2500  -5.9728   0.0000   0.2713
  14.500   2.0501   0.12494   0.12006  -0.1227  0.0443  0.2500  -6.0825   0.0000   0.2706
  15.000   2.0345   0.13234   0.12761  -0.1254  0.0414  0.2500  -6.1635   0.0000   0.2706
  15.500   2.0192   0.13976   0.13518  -0.1287  0.0389  0.2500  -6.2392   0.0000   0.2709
  16.000   2.0017   0.14751   0.14310  -0.1330  0.0369  0.2500  -6.2989   0.0000   0.2717
  16.500   1.9852   0.15515   0.15089  -0.1378  0.0350  0.2500  -6.3570   0.0000   0.2727
  17.000   1.9662   0.16320   0.15909  -0.1434  0.0334  0.2500  -6.4055   0.0000   0.2743
  17.500   1.9500   0.17085   0.16690  -0.1493  0.0318  0.2500  -6.4639   0.0000   0.2759
  18.000   1.9324   0.17868   0.17485  -0.1557  0.0300  0.2500  -6.5084   0.0000   0.2778
  18.500   1.9207   0.18564   0.18194  -0.1617  0.0285  0.2500  -6.5784   0.0000   0.2794
  19.000   1.9046   0.19322   0.18964  -0.1687  0.0268  0.2500  -6.6171   0.0000   0.2816
  19.500   1.8950   0.19978   0.19632  -0.1749  0.0255  0.2500  -6.6882   0.0000   0.2832
  20.000   1.8843   0.20649   0.20313  -0.1816  0.0240  0.2500  -6.7465   0.0000   0.2851
  20.500   1.8777   0.21248   0.20922  -0.1877  0.0228  0.2500  -6.8268   0.0000   0.2866
  21.000   1.8704   0.21854   0.21538  -0.1941  0.0216  0.2500  -6.8977   0.0000   0.2882
  21.500   1.8624   0.22468   0.22162  -0.2009  0.0205  0.2500  -6.9580   0.0000   0.2900
  22.000   1.8566   0.23035   0.22739  -0.2073  0.0194  0.2500  -7.0300   0.0000   0.2915
  22.500   1.8487   0.23631   0.23344  -0.2143  0.0182  0.2500  -7.0815   0.0000   0.2934
  23.000   1.8461   0.24125   0.23846  -0.2202  0.0173  0.2500  -7.1703   0.0000   0.2945
  23.500   1.8412   0.24653   0.24382  -0.2267  0.0164  0.2500  -7.2462   0.0000   0.2959
  24.000   1.8348   0.25200   0.24939  -0.2337  0.0156  0.2500  -7.3075   0.0000   0.2977
  24.500   1.8309   0.25693   0.25441  -0.2401  0.0149  0.2500  -7.3870   0.0000   0.2990
  25.000   1.8280   0.26157   0.25912  -0.2463  0.0141  0.2500  -7.4731   0.0000   0.3001


