xflr5 v6.47

 Calculated polar for: NACA24018_theta30_Ku4.5_Kl0.5_d0.24_delta7.31

 1 1 Reynolds number fixed          Mach number fixed         

 xtrf =   0.250 (top)        0.250 (bottom)
 Mach =   0.000     Re =     0.500 e 6     Ncrit =   5.000

  alpha     CL        CD       CDp       Cm    Top Xtr Bot Xtr   Cpmin    Chinge    XCp    
 ------- -------- --------- --------- -------- ------- ------- -------- --------- ---------
 -15.000  -0.6724   0.03789   0.03068  -0.1045  0.2500  0.0418  -5.1901   0.0000   0.0684
 -14.500  -0.6386   0.03602   0.02871  -0.1051  0.2500  0.0431  -4.9371   0.0000   0.0597
 -14.000  -0.5934   0.03459   0.02714  -0.1066  0.2500  0.0448  -4.6583   0.0000   0.0445
 -13.500  -0.5396   0.03327   0.02578  -0.1095  0.2500  0.0467  -4.3592   0.0000   0.0207
 -13.000  -0.4806   0.03238   0.02478  -0.1125  0.2500  0.0489  -4.0517   0.0000  -0.0115
 -12.500  -0.4163   0.03166   0.02400  -0.1162  0.2500  0.0513  -3.7352   0.0000  -0.0583
 -12.000  -0.3511   0.03123   0.02347  -0.1195  0.2500  0.0544  -3.4259   0.0000  -0.1222
 -11.500  -0.2813   0.03090   0.02311  -0.1235  0.2500  0.0578  -3.1241   0.0000  -0.2258
 -11.000  -0.2108   0.03076   0.02292  -0.1274  0.2500  0.0619  -2.8298   0.0000  -0.3994
 -10.500  -0.1395   0.03077   0.02287  -0.1313  0.2500  0.0666  -2.5529   0.0000  -0.7532
 -10.000  -0.0677   0.03090   0.02296  -0.1351  0.2500  0.0722  -2.2864   0.0000  -1.8609
  -9.500   0.0058   0.03115   0.02320  -0.1391  0.2500  0.0794  -2.0249   0.0000  25.4327
  -9.000   0.0803   0.03152   0.02355  -0.1432  0.2500  0.0883  -1.7821   0.0000   2.1123
  -8.500   0.1548   0.03198   0.02402  -0.1472  0.2500  0.0999  -1.5534   0.0000   1.2376
  -8.000   0.2303   0.03256   0.02461  -0.1513  0.2500  0.1151  -1.3378   0.0000   0.9284
  -7.500   0.3088   0.03328   0.02537  -0.1559  0.2500  0.1382  -1.1257   0.0000   0.7687
  -7.000   0.3953   0.03424   0.02645  -0.1620  0.2500  0.1810  -0.9261   0.0000   0.6688
  -6.500   0.4922   0.03558   0.02795  -0.1700  0.2500  0.2500  -0.8669   0.0000   0.6011
  -6.000   0.5525   0.03624   0.02851  -0.1708  0.2500  0.2500  -0.9324   0.0000   0.5630
  -5.500   0.6119   0.03690   0.02911  -0.1715  0.2500  0.2500  -0.9986   0.0000   0.5325
  -5.000   0.6706   0.03758   0.02975  -0.1721  0.2500  0.2500  -1.0651   0.0000   0.5074
  -4.500   0.7287   0.03828   0.03041  -0.1725  0.2500  0.2500  -1.1358   0.0000   0.4864
  -4.000   0.7858   0.03899   0.03109  -0.1728  0.2500  0.2500  -1.2093   0.0000   0.4685
  -3.500   0.8423   0.03972   0.03180  -0.1729  0.2500  0.2500  -1.2832   0.0000   0.4530
  -3.000   0.8982   0.04046   0.03254  -0.1730  0.2500  0.2500  -1.3580   0.0000   0.4394
  -2.500   0.9532   0.04122   0.03331  -0.1728  0.2500  0.2500  -1.4360   0.0000   0.4273
  -2.000   1.0077   0.04200   0.03411  -0.1726  0.2500  0.2500  -1.5144   0.0000   0.4165
  -1.500   1.0611   0.04282   0.03495  -0.1722  0.2500  0.2500  -1.5972   0.0000   0.4067
  -1.000   1.1138   0.04367   0.03584  -0.1717  0.2500  0.2500  -1.6832   0.0000   0.3979
  -0.500   1.1656   0.04456   0.03677  -0.1711  0.2500  0.2500  -1.7695   0.0000   0.3897
   0.000   1.2165   0.04547   0.03774  -0.1703  0.2500  0.2500  -1.8588   0.0000   0.3822
   0.500   1.2667   0.04641   0.03875  -0.1694  0.2500  0.2500  -1.9494   0.0000   0.3752
   1.000   1.3158   0.04736   0.03977  -0.1683  0.2500  0.2500  -2.0439   0.0000   0.3686
   1.500   1.3641   0.04835   0.04085  -0.1671  0.2500  0.2500  -2.1400   0.0000   0.3625
   2.000   1.4114   0.04939   0.04198  -0.1658  0.2500  0.2500  -2.2431   0.0000   0.3567
   2.500   1.4575   0.05048   0.04316  -0.1643  0.2498  0.2500  -2.3457   0.0000   0.3511
   3.000   1.5011   0.05172   0.04447  -0.1625  0.2427  0.2500  -2.4472   0.0000   0.3459
   3.500   1.5417   0.05316   0.04593  -0.1603  0.2343  0.2500  -2.5480   0.0000   0.3408
   4.000   1.5827   0.05454   0.04740  -0.1583  0.2275  0.2500  -2.6592   0.0000   0.3359
   4.500   1.6216   0.05608   0.04899  -0.1560  0.2204  0.2500  -2.7737   0.0000   0.3313
   5.000   1.6586   0.05774   0.05073  -0.1535  0.2135  0.2500  -2.8941   0.0000   0.3267
   5.500   1.6929   0.05962   0.05267  -0.1507  0.2057  0.2500  -3.0146   0.0000   0.3223
   6.000   1.7270   0.06149   0.05464  -0.1480  0.1989  0.2500  -3.1430   0.0000   0.3180
   6.500   1.7565   0.06373   0.05695  -0.1449  0.1912  0.2500  -3.2685   0.0000   0.3139
   7.000   1.7866   0.06591   0.05925  -0.1420  0.1846  0.2500  -3.4109   0.0000   0.3098
   7.500   1.8106   0.06863   0.06204  -0.1386  0.1769  0.2500  -3.5566   0.0000   0.3059
   8.000   1.8364   0.07122   0.06476  -0.1355  0.1701  0.2500  -3.7127   0.0000   0.3021
   8.500   1.8551   0.07447   0.06810  -0.1322  0.1625  0.2500  -3.8563   0.0000   0.2984
   9.000   1.8742   0.07773   0.07149  -0.1291  0.1548  0.2500  -4.0177   0.0000   0.2948
   9.500   1.8889   0.08147   0.07535  -0.1261  0.1477  0.2500  -4.1696   0.0000   0.2915
  10.000   1.8982   0.08582   0.07981  -0.1233  0.1403  0.2500  -4.3199   0.0000   0.2885
  10.500   1.9096   0.09001   0.08415  -0.1211  0.1335  0.2500  -4.4813   0.0000   0.2856
  11.000   1.9144   0.09497   0.08925  -0.1192  0.1270  0.2500  -4.6237   0.0000   0.2831
  11.500   1.9163   0.10029   0.09471  -0.1180  0.1199  0.2500  -4.7565   0.0000   0.2810
  12.000   1.9169   0.10581   0.10038  -0.1174  0.1128  0.2500  -4.8837   0.0000   0.2792
  12.500   1.9132   0.11189   0.10662  -0.1176  0.1066  0.2500  -4.9947   0.0000   0.2779
  13.000   1.9057   0.11852   0.11340  -0.1188  0.1006  0.2500  -5.0974   0.0000   0.2772
  13.500   1.8992   0.12508   0.12013  -0.1207  0.0947  0.2500  -5.2056   0.0000   0.2768
  14.000   1.8879   0.13229   0.12750  -0.1237  0.0892  0.2500  -5.2908   0.0000   0.2770
  14.500   1.8725   0.14011   0.13547  -0.1277  0.0837  0.2500  -5.3537   0.0000   0.2779
  15.000   1.8610   0.14746   0.14299  -0.1320  0.0784  0.2500  -5.4260   0.0000   0.2788
  15.500   1.8466   0.15524   0.15093  -0.1372  0.0738  0.2500  -5.4797   0.0000   0.2803
  16.000   1.8301   0.16336   0.15918  -0.1432  0.0693  0.2500  -5.5166   0.0000   0.2824
  16.500   1.8208   0.17042   0.16639  -0.1487  0.0650  0.2500  -5.5810   0.0000   0.2839
  17.000   1.8102   0.17765   0.17375  -0.1547  0.0611  0.2500  -5.6341   0.0000   0.2857
  17.500   1.7985   0.18506   0.18126  -0.1612  0.0573  0.2500  -5.6747   0.0000   0.2879
  18.000   1.7922   0.19155   0.18788  -0.1671  0.0535  0.2500  -5.7439   0.0000   0.2896
  18.500   1.7850   0.19817   0.19460  -0.1735  0.0500  0.2500  -5.8081   0.0000   0.2915
  19.000   1.7774   0.20482   0.20134  -0.1801  0.0467  0.2500  -5.8648   0.0000   0.2936
  19.500   1.7750   0.21055   0.20718  -0.1860  0.0436  0.2500  -5.9531   0.0000   0.2949
  20.000   1.7706   0.21657   0.21329  -0.1923  0.0409  0.2500  -6.0260   0.0000   0.2967
  20.500   1.7666   0.22244   0.21925  -0.1988  0.0382  0.2500  -6.0976   0.0000   0.2984
  21.000   1.7648   0.22786   0.22477  -0.2049  0.0359  0.2500  -6.1803   0.0000   0.2998
  21.500   1.7619   0.23338   0.23035  -0.2113  0.0338  0.2500  -6.2525   0.0000   0.3014
  22.000   1.7620   0.23828   0.23537  -0.2170  0.0318  0.2500  -6.3433   0.0000   0.3025
  22.500   1.7596   0.24357   0.24071  -0.2235  0.0300  0.2500  -6.4114   0.0000   0.3041
  23.000   1.7604   0.24816   0.24542  -0.2292  0.0282  0.2500  -6.5023   0.0000   0.3049
  23.500   1.7582   0.25320   0.25051  -0.2357  0.0265  0.2500  -6.5668   0.0000   0.3064
  24.000   1.7577   0.25784   0.25528  -0.2418  0.0249  0.2500  -6.6499   0.0000   0.3075
  24.500   1.7573   0.26234   0.25981  -0.2479  0.0236  0.2500  -6.7387   0.0000   0.3086
  25.000   1.7569   0.26680   0.26440  -0.2540  0.0223  0.2500  -6.8199   0.0000   0.3096


