xflr5 v6.47

 Calculated polar for: NACA24018_theta30_Ku4.5_Kl0.5_d0.07_delta1.57

 1 1 Reynolds number fixed          Mach number fixed         

 xtrf =   0.250 (top)        0.250 (bottom)
 Mach =   0.000     Re =     0.900 e 6     Ncrit =   5.000

  alpha     CL        CD       CDp       Cm    Top Xtr Bot Xtr   Cpmin    Chinge    XCp    
 ------- -------- --------- --------- -------- ------- ------- -------- --------- ---------
 -15.000  -0.8388   0.02700   0.01938  -0.1212  0.2500  0.0293  -6.0493   0.0000   0.0790
 -14.500  -0.8154   0.02523   0.01753  -0.1192  0.2500  0.0302  -5.8078   0.0000   0.0783
 -14.000  -0.7893   0.02375   0.01600  -0.1169  0.2500  0.0312  -5.5561   0.0000   0.0772
 -13.500  -0.7618   0.02248   0.01465  -0.1143  0.2500  0.0322  -5.3028   0.0000   0.0759
 -13.000  -0.7334   0.02136   0.01345  -0.1115  0.2500  0.0331  -5.0497   0.0000   0.0746
 -12.500  -0.7055   0.02033   0.01235  -0.1084  0.2500  0.0340  -4.8048   0.0000   0.0738
 -12.000  -0.6787   0.01936   0.01134  -0.1047  0.2500  0.0353  -4.5732   0.0000   0.0738
 -11.500  -0.6509   0.01854   0.01048  -0.1009  0.2500  0.0367  -4.3412   0.0000   0.0738
 -11.000  -0.6226   0.01785   0.00972  -0.0968  0.2500  0.0381  -4.1174   0.0000   0.0738
 -10.500  -0.5966   0.01716   0.00900  -0.0922  0.2500  0.0397  -3.9082   0.0000   0.0755
 -10.000  -0.5720   0.01657   0.00838  -0.0871  0.2500  0.0414  -3.7047   0.0000   0.0785
  -9.500  -0.5510   0.01608   0.00785  -0.0810  0.2500  0.0430  -3.5139   0.0000   0.0844
  -9.000  -0.5260   0.01558   0.00732  -0.0756  0.2500  0.0449  -3.3163   0.0000   0.0883
  -8.500  -0.4912   0.01507   0.00680  -0.0719  0.2500  0.0476  -3.0979   0.0000   0.0859
  -8.000  -0.4511   0.01463   0.00632  -0.0692  0.2500  0.0500  -2.8725   0.0000   0.0790
  -7.500  -0.4090   0.01418   0.00587  -0.0668  0.2500  0.0537  -2.6484   0.0000   0.0690
  -7.000  -0.3638   0.01381   0.00547  -0.0649  0.2500  0.0573  -2.4334   0.0000   0.0536
  -6.500  -0.3172   0.01345   0.00512  -0.0632  0.2500  0.0620  -2.2214   0.0000   0.0322
  -6.000  -0.2690   0.01313   0.00481  -0.0618  0.2500  0.0676  -2.0186   0.0000   0.0007
  -5.500  -0.2192   0.01286   0.00453  -0.0607  0.2500  0.0742  -1.8224   0.0000  -0.0480
  -5.000  -0.1682   0.01260   0.00429  -0.0598  0.2500  0.0831  -1.6342   0.0000  -0.1295
  -4.500  -0.1160   0.01235   0.00409  -0.0591  0.2500  0.0949  -1.4555   0.0000  -0.2892
  -4.000  -0.0628   0.01212   0.00391  -0.0586  0.2500  0.1103  -1.2809   0.0000  -0.7297
  -3.500  -0.0085   0.01189   0.00376  -0.0584  0.2500  0.1336  -1.1184   0.0000  -6.9216
  -3.000   0.0474   0.01161   0.00363  -0.0585  0.2500  0.1743  -0.9637   0.0000   1.5226
  -2.500   0.1065   0.01121   0.00348  -0.0595  0.2500  0.2500  -0.8213   0.0000   0.8206
  -2.000   0.1621   0.01125   0.00348  -0.0592  0.2500  0.2500  -0.8314   0.0000   0.6201
  -1.500   0.2176   0.01131   0.00350  -0.0590  0.2500  0.2500  -0.8932   0.0000   0.5220
  -1.000   0.2729   0.01138   0.00355  -0.0587  0.2500  0.2500  -0.9560   0.0000   0.4637
  -0.500   0.3281   0.01147   0.00361  -0.0584  0.2500  0.2500  -1.0218   0.0000   0.4251
   0.000   0.3832   0.01156   0.00370  -0.0581  0.2500  0.2500  -1.0922   0.0000   0.3976
   0.500   0.4378   0.01168   0.00381  -0.0577  0.2500  0.2500  -1.1634   0.0000   0.3769
   1.000   0.4920   0.01181   0.00395  -0.0573  0.2500  0.2500  -1.2350   0.0000   0.3607
   1.500   0.5458   0.01195   0.00411  -0.0568  0.2500  0.2500  -1.3086   0.0000   0.3476
   2.000   0.5992   0.01211   0.00430  -0.0563  0.2500  0.2500  -1.3851   0.0000   0.3367
   2.500   0.6525   0.01229   0.00450  -0.0557  0.2500  0.2500  -1.4628   0.0000   0.3276
   3.000   0.7053   0.01248   0.00474  -0.0551  0.2500  0.2500  -1.5446   0.0000   0.3198
   3.500   0.7578   0.01269   0.00500  -0.0545  0.2500  0.2500  -1.6288   0.0000   0.3129
   4.000   0.8096   0.01293   0.00529  -0.0537  0.2500  0.2500  -1.7162   0.0000   0.3068
   4.500   0.8593   0.01325   0.00562  -0.0527  0.2455  0.2500  -1.8070   0.0000   0.3011
   5.000   0.9083   0.01359   0.00599  -0.0515  0.2392  0.2500  -1.8981   0.0000   0.2959
   5.500   0.9559   0.01399   0.00639  -0.0502  0.2316  0.2500  -1.9890   0.0000   0.2911
   6.000   1.0039   0.01438   0.00682  -0.0490  0.2259  0.2500  -2.0855   0.0000   0.2867
   6.500   1.0498   0.01484   0.00731  -0.0475  0.2190  0.2500  -2.1821   0.0000   0.2825
   7.000   1.0950   0.01533   0.00783  -0.0459  0.2128  0.2500  -2.2854   0.0000   0.2785
   7.500   1.1388   0.01588   0.00841  -0.0442  0.2057  0.2500  -2.3920   0.0000   0.2747
   8.000   1.1817   0.01647   0.00905  -0.0424  0.1994  0.2500  -2.5009   0.0000   0.2710
   8.500   1.2225   0.01716   0.00977  -0.0404  0.1926  0.2500  -2.6168   0.0000   0.2675
   9.000   1.2630   0.01787   0.01055  -0.0384  0.1864  0.2500  -2.7346   0.0000   0.2641
   9.500   1.3000   0.01875   0.01147  -0.0361  0.1791  0.2500  -2.8548   0.0000   0.2606
  10.000   1.3378   0.01963   0.01242  -0.0340  0.1735  0.2500  -2.9841   0.0000   0.2575
  10.500   1.3704   0.02079   0.01361  -0.0315  0.1658  0.2500  -3.1170   0.0000   0.2542
  11.000   1.4048   0.02191   0.01483  -0.0294  0.1597  0.2500  -3.2568   0.0000   0.2512
  11.500   1.4339   0.02337   0.01634  -0.0269  0.1526  0.2500  -3.3993   0.0000   0.2481
  12.000   1.4627   0.02492   0.01796  -0.0246  0.1456  0.2500  -3.5518   0.0000   0.2453
  12.500   1.4879   0.02678   0.01990  -0.0223  0.1388  0.2500  -3.7074   0.0000   0.2425
  13.000   1.5080   0.02909   0.02226  -0.0199  0.1309  0.2500  -3.8570   0.0000   0.2397
  13.500   1.5292   0.03146   0.02472  -0.0180  0.1245  0.2500  -4.0166   0.0000   0.2372
  14.000   1.5438   0.03447   0.02782  -0.0162  0.1180  0.2500  -4.1603   0.0000   0.2348
  14.500   1.5552   0.03794   0.03138  -0.0147  0.1110  0.2500  -4.3015   0.0000   0.2327
  15.000   1.5640   0.04184   0.03540  -0.0137  0.1052  0.2500  -4.4420   0.0000   0.2308
  15.500   1.5643   0.04679   0.04046  -0.0132  0.0989  0.2500  -4.5602   0.0000   0.2292
  16.000   1.5644   0.05205   0.04585  -0.0133  0.0936  0.2500  -4.6779   0.0000   0.2281
  16.500   1.5532   0.05879   0.05272  -0.0142  0.0884  0.2500  -4.7576   0.0000   0.2273
  17.000   1.5418   0.06586   0.05996  -0.0157  0.0838  0.2500  -4.8326   0.0000   0.2270
  17.500   1.5170   0.07483   0.06909  -0.0183  0.0792  0.2500  -4.8575   0.0000   0.2274
  18.000   1.4949   0.08375   0.07819  -0.0213  0.0753  0.2500  -4.8858   0.0000   0.2283
  18.500   1.4616   0.09439   0.08900  -0.0256  0.0713  0.2500  -4.8656   0.0000   0.2300
  19.000   1.4382   0.10393   0.09871  -0.0299  0.0680  0.2500  -4.8790   0.0000   0.2319
  19.500   1.4109   0.11418   0.10910  -0.0351  0.0643  0.2500  -4.8703   0.0000   0.2345
  20.000   1.3911   0.12351   0.11858  -0.0404  0.0610  0.2500  -4.8836   0.0000   0.2371
  20.500   1.3738   0.13260   0.12779  -0.0459  0.0572  0.2500  -4.8997   0.0000   0.2401
  21.000   1.3598   0.14128   0.13658  -0.0517  0.0540  0.2500  -4.9221   0.0000   0.2431
  21.500   1.3500   0.14939   0.14479  -0.0574  0.0507  0.2500  -4.9608   0.0000   0.2461
  22.000   1.3420   0.15729   0.15278  -0.0633  0.0478  0.2500  -5.0071   0.0000   0.2493
  22.500   1.3378   0.16461   0.16021  -0.0691  0.0448  0.2500  -5.0679   0.0000   0.2522
  23.000   1.3319   0.17223   0.16790  -0.0754  0.0420  0.2500  -5.1128   0.0000   0.2556
  23.500   1.3309   0.17902   0.17479  -0.0812  0.0393  0.2500  -5.1812   0.0000   0.2584
  24.000   1.3280   0.18615   0.18199  -0.0876  0.0369  0.2500  -5.2332   0.0000   0.2617
  24.500   1.3303   0.19240   0.18833  -0.0934  0.0348  0.2500  -5.3120   0.0000   0.2643
  25.000   1.3274   0.19958   0.19557  -0.1001  0.0326  0.2500  -5.3570   0.0000   0.2678


