xflr5 v6.47

 Calculated polar for: NACA24018_theta30_Ku4.5_Kl0.5_d0.14_delta3.44

 1 1 Reynolds number fixed          Mach number fixed         

 xtrf =   0.250 (top)        0.250 (bottom)
 Mach =   0.000     Re =     3.500 e 6     Ncrit =   5.000

  alpha     CL        CD       CDp       Cm    Top Xtr Bot Xtr   Cpmin    Chinge    XCp    
 ------- -------- --------- --------- -------- ------- ------- -------- --------- ---------
 -15.000  -0.9196   0.01930   0.01310  -0.1092  0.2500  0.0242  -6.3940   0.0000   0.1076
 -14.500  -0.9113   0.01831   0.01208  -0.1028  0.2500  0.0248  -6.1823   0.0000   0.1147
 -14.000  -0.8771   0.01746   0.01119  -0.1005  0.2500  0.0256  -5.8850   0.0000   0.1135
 -13.500  -0.8329   0.01675   0.01045  -0.0997  0.2500  0.0264  -5.5656   0.0000   0.1089
 -13.000  -0.7832   0.01612   0.00979  -0.0997  0.2500  0.0271  -5.2356   0.0000   0.1017
 -12.500  -0.7290   0.01553   0.00918  -0.1004  0.2500  0.0284  -4.9071   0.0000   0.0914
 -12.000  -0.6719   0.01505   0.00868  -0.1014  0.2500  0.0295  -4.5818   0.0000   0.0781
 -11.500  -0.6123   0.01463   0.00824  -0.1028  0.2500  0.0306  -4.2576   0.0000   0.0610
 -11.000  -0.5507   0.01425   0.00785  -0.1045  0.2500  0.0324  -3.9366   0.0000   0.0387
 -10.500  -0.4882   0.01396   0.00754  -0.1062  0.2500  0.0339  -3.6222   0.0000   0.0101
 -10.000  -0.4238   0.01367   0.00725  -0.1083  0.2500  0.0361  -3.3127   0.0000  -0.0291
  -9.500  -0.3593   0.01346   0.00703  -0.1103  0.2500  0.0381  -3.0157   0.0000  -0.0824
  -9.000  -0.2936   0.01326   0.00684  -0.1125  0.2500  0.0410  -2.7350   0.0000  -0.1614
  -8.500  -0.2277   0.01312   0.00669  -0.1147  0.2500  0.0438  -2.4710   0.0000  -0.2867
  -8.000  -0.1616   0.01301   0.00659  -0.1168  0.2500  0.0473  -2.2191   0.0000  -0.5153
  -7.500  -0.0949   0.01293   0.00651  -0.1191  0.2500  0.0512  -1.9753   0.0000  -1.0687
  -7.000  -0.0281   0.01287   0.00648  -0.1213  0.2500  0.0564  -1.7482   0.0000  -4.2603
  -6.500   0.0387   0.01285   0.00647  -0.1235  0.2500  0.0623  -1.5321   0.0000   3.5712
  -6.000   0.1054   0.01285   0.00649  -0.1257  0.2500  0.0689  -1.3326   0.0000   1.4832
  -5.500   0.1722   0.01287   0.00654  -0.1278  0.2500  0.0774  -1.1497   0.0000   1.0137
  -5.000   0.2401   0.01291   0.00663  -0.1302  0.2500  0.0907  -0.9734   0.0000   0.8051
  -4.500   0.3072   0.01298   0.00674  -0.1324  0.2500  0.1041  -0.8161   0.0000   0.6891
  -4.000   0.3764   0.01307   0.00690  -0.1350  0.2500  0.1273  -0.8844   0.0000   0.6137
  -3.500   0.4477   0.01317   0.00711  -0.1380  0.2500  0.1628  -0.9567   0.0000   0.5612
  -2.500   0.5928   0.01348   0.00764  -0.1446  0.2500  0.2500  -1.1165   0.0000   0.4939
  -2.000   0.6530   0.01366   0.00781  -0.1452  0.2500  0.2500  -1.1892   0.0000   0.4713
  -1.500   0.7128   0.01386   0.00800  -0.1458  0.2500  0.2500  -1.2640   0.0000   0.4526
  -1.000   0.7723   0.01406   0.00820  -0.1463  0.2500  0.2500  -1.3442   0.0000   0.4366
  -0.500   0.8313   0.01427   0.00842  -0.1467  0.2500  0.2500  -1.4260   0.0000   0.4229
   0.000   0.8895   0.01452   0.00865  -0.1470  0.2452  0.2500  -1.5093   0.0000   0.4110
   0.500   0.9468   0.01481   0.00890  -0.1471  0.2362  0.2500  -1.5955   0.0000   0.4004
   1.000   1.0036   0.01510   0.00917  -0.1472  0.2293  0.2500  -1.6825   0.0000   0.3909
   1.500   1.0596   0.01543   0.00947  -0.1470  0.2219  0.2500  -1.7740   0.0000   0.3824
   2.000   1.1150   0.01575   0.00979  -0.1468  0.2163  0.2500  -1.8703   0.0000   0.3746
   2.500   1.1694   0.01613   0.01014  -0.1464  0.2081  0.2500  -1.9666   0.0000   0.3675
   3.000   1.2235   0.01651   0.01051  -0.1460  0.2022  0.2500  -2.0673   0.0000   0.3609
   3.500   1.2765   0.01693   0.01091  -0.1453  0.1947  0.2500  -2.1691   0.0000   0.3548
   4.000   1.3293   0.01736   0.01134  -0.1447  0.1888  0.2500  -2.2766   0.0000   0.3490
   4.500   1.3806   0.01784   0.01180  -0.1438  0.1815  0.2500  -2.3913   0.0000   0.3436
   5.000   1.4310   0.01835   0.01230  -0.1427  0.1744  0.2500  -2.5086   0.0000   0.3385
   5.500   1.4805   0.01890   0.01284  -0.1415  0.1669  0.2500  -2.6262   0.0000   0.3336
   6.000   1.5282   0.01952   0.01345  -0.1400  0.1596  0.2500  -2.7520   0.0000   0.3289
   6.500   1.5744   0.02019   0.01413  -0.1383  0.1533  0.2500  -2.8839   0.0000   0.3243
   7.000   1.6181   0.02098   0.01491  -0.1362  0.1445  0.2500  -3.0141   0.0000   0.3198
   7.500   1.6605   0.02184   0.01574  -0.1339  0.1354  0.2500  -3.1516   0.0000   0.3155
   8.000   1.7020   0.02275   0.01664  -0.1316  0.1272  0.2500  -3.3039   0.0000   0.3113
   8.500   1.7408   0.02377   0.01767  -0.1288  0.1201  0.2500  -3.4613   0.0000   0.3071
   9.000   1.7778   0.02491   0.01880  -0.1258  0.1121  0.2500  -3.6277   0.0000   0.3030
   9.500   1.8113   0.02623   0.02011  -0.1225  0.1030  0.2500  -3.7999   0.0000   0.2989
  10.000   1.8423   0.02772   0.02160  -0.1188  0.0953  0.2500  -3.9779   0.0000   0.2948
  10.500   1.8701   0.02942   0.02331  -0.1149  0.0872  0.2500  -4.1641   0.0000   0.2908
  11.000   1.8963   0.03128   0.02518  -0.1110  0.0802  0.2500  -4.3516   0.0000   0.2869
  11.500   1.9185   0.03344   0.02736  -0.1068  0.0733  0.2500  -4.5362   0.0000   0.2830
  12.000   1.9374   0.03593   0.02988  -0.1025  0.0672  0.2500  -4.7179   0.0000   0.2792
  12.500   1.9540   0.03875   0.03275  -0.0984  0.0617  0.2500  -4.9103   0.0000   0.2755
  13.000   1.9684   0.04190   0.03595  -0.0946  0.0568  0.2500  -5.0994   0.0000   0.2721
  13.500   1.9770   0.04569   0.03980  -0.0909  0.0519  0.2500  -5.2732   0.0000   0.2688
  14.000   1.9829   0.04997   0.04416  -0.0876  0.0481  0.2500  -5.4393   0.0000   0.2658
  14.500   1.9865   0.05470   0.04899  -0.0850  0.0450  0.2500  -5.5981   0.0000   0.2631
  15.000   1.9869   0.05994   0.05433  -0.0829  0.0424  0.2500  -5.7523   0.0000   0.2608
  15.500   1.9773   0.06653   0.06104  -0.0814  0.0393  0.2500  -5.8716   0.0000   0.2588
  16.000   1.9687   0.07330   0.06794  -0.0809  0.0371  0.2500  -5.9919   0.0000   0.2573
  16.500   1.9495   0.08151   0.07631  -0.0812  0.0350  0.2500  -6.0711   0.0000   0.2564
  17.000   1.9318   0.08981   0.08476  -0.0825  0.0334  0.2500  -6.1554   0.0000   0.2559
  17.500   1.9038   0.09957   0.09469  -0.0850  0.0317  0.2500  -6.2006   0.0000   0.2563
  18.000   1.8785   0.10917   0.10446  -0.0884  0.0304  0.2500  -6.2478   0.0000   0.2570
  18.500   1.8501   0.11930   0.11476  -0.0928  0.0289  0.2500  -6.2720   0.0000   0.2585
  19.000   1.8226   0.12935   0.12496  -0.0981  0.0275  0.2500  -6.2900   0.0000   0.2604
  19.500   1.7994   0.13892   0.13469  -0.1037  0.0263  0.2500  -6.3177   0.0000   0.2625
  20.000   1.7746   0.14881   0.14471  -0.1103  0.0249  0.2500  -6.3272   0.0000   0.2652
  20.500   1.7602   0.15713   0.15316  -0.1163  0.0239  0.2500  -6.3810   0.0000   0.2674
  21.000   1.7472   0.16525   0.16139  -0.1225  0.0229  0.2500  -6.4353   0.0000   0.2696
  21.500   1.7321   0.17375   0.17000  -0.1294  0.0217  0.2500  -6.4704   0.0000   0.2724
  22.000   1.7254   0.18092   0.17728  -0.1355  0.0209  0.2500  -6.5468   0.0000   0.2744
  22.500   1.7184   0.18811   0.18456  -0.1420  0.0200  0.2500  -6.6167   0.0000   0.2766
  23.000   1.7100   0.19554   0.19208  -0.1489  0.0190  0.2500  -6.6716   0.0000   0.2791
  23.500   1.7058   0.20222   0.19885  -0.1553  0.0183  0.2500  -6.7495   0.0000   0.2812
  24.000   1.7002   0.20911   0.20584  -0.1623  0.0175  0.2500  -6.8178   0.0000   0.2836


