xflr5 v6.47

 Calculated polar for: NACA24018_theta30_Ku4.5_Kl0.5_d0.07_delta1.57

 1 1 Reynolds number fixed          Mach number fixed         

 xtrf =   0.250 (top)        0.250 (bottom)
 Mach =   0.000     Re =     4.000 e 6     Ncrit =   5.000

  alpha     CL        CD       CDp       Cm    Top Xtr Bot Xtr   Cpmin    Chinge    XCp    
 ------- -------- --------- --------- -------- ------- ------- -------- --------- ---------
 -15.000  -0.9550   0.01758   0.01124  -0.1157  0.2500  0.0218  -6.5914   0.0000   0.1046
 -14.500  -0.9233   0.01677   0.01039  -0.1129  0.2500  0.0221  -6.2967   0.0000   0.1043
 -14.000  -0.8930   0.01597   0.00956  -0.1096  0.2500  0.0230  -6.0125   0.0000   0.1045
 -13.500  -0.8624   0.01525   0.00882  -0.1062  0.2500  0.0239  -5.7309   0.0000   0.1049
 -13.000  -0.8312   0.01463   0.00817  -0.1026  0.2500  0.0247  -5.4511   0.0000   0.1053
 -12.500  -0.7997   0.01409   0.00761  -0.0988  0.2500  0.0252  -5.1752   0.0000   0.1058
 -12.000  -0.7696   0.01361   0.00710  -0.0946  0.2500  0.0258  -4.9123   0.0000   0.1071
 -11.500  -0.7455   0.01314   0.00661  -0.0890  0.2500  0.0271  -4.6790   0.0000   0.1113
 -11.000  -0.7247   0.01274   0.00620  -0.0827  0.2500  0.0280  -4.4647   0.0000   0.1174
 -10.500  -0.6865   0.01232   0.00577  -0.0796  0.2500  0.0289  -4.2090   0.0000   0.1159
 -10.000  -0.6437   0.01194   0.00537  -0.0774  0.2500  0.0299  -3.9467   0.0000   0.1121
  -9.500  -0.5981   0.01154   0.00497  -0.0756  0.2500  0.0317  -3.6832   0.0000   0.1061
  -9.000  -0.5494   0.01121   0.00463  -0.0744  0.2500  0.0332  -3.4179   0.0000   0.0972
  -8.500  -0.4989   0.01090   0.00431  -0.0734  0.2500  0.0351  -3.1556   0.0000   0.0853
  -8.000  -0.4473   0.01061   0.00403  -0.0726  0.2500  0.0376  -2.8980   0.0000   0.0699
  -7.500  -0.3947   0.01037   0.00379  -0.0720  0.2500  0.0396  -2.6456   0.0000   0.0494
  -7.000  -0.3411   0.01013   0.00356  -0.0715  0.2500  0.0428  -2.4073   0.0000   0.0214
  -6.500  -0.2865   0.00992   0.00337  -0.0712  0.2500  0.0459  -2.1773   0.0000  -0.0187
  -6.000  -0.2310   0.00974   0.00320  -0.0711  0.2500  0.0494  -1.9627   0.0000  -0.0798
  -5.500  -0.1747   0.00957   0.00305  -0.0711  0.2500  0.0541  -1.7548   0.0000  -0.1826
  -5.000  -0.1178   0.00943   0.00293  -0.0712  0.2500  0.0585  -1.5612   0.0000  -0.3874
  -4.500  -0.0602   0.00930   0.00282  -0.0714  0.2500  0.0648  -1.3748   0.0000  -0.9910
  -4.000  -0.0021   0.00918   0.00273  -0.0717  0.2500  0.0723  -1.1958   0.0000  -35.1609
  -3.500   0.0568   0.00906   0.00266  -0.0722  0.2500  0.0847  -1.0301   0.0000   1.5620
  -3.000   0.1160   0.00896   0.00262  -0.0728  0.2500  0.0977  -0.8789   0.0000   0.8921
  -2.000   0.2366   0.00877   0.00258  -0.0744  0.2500  0.1414  -0.8804   0.0000   0.5668
  -1.000   0.3660   0.00848   0.00260  -0.0780  0.2500  0.2500  -1.0207   0.0000   0.4615
  -0.500   0.4242   0.00854   0.00266  -0.0782  0.2500  0.2500  -1.0939   0.0000   0.4316
   0.000   0.4822   0.00861   0.00273  -0.0785  0.2500  0.2500  -1.1682   0.0000   0.4088
   0.500   0.5401   0.00869   0.00281  -0.0787  0.2500  0.2500  -1.2434   0.0000   0.3909
   1.000   0.5970   0.00883   0.00292  -0.0787  0.2445  0.2500  -1.3190   0.0000   0.3764
   1.500   0.6537   0.00897   0.00304  -0.0787  0.2382  0.2500  -1.3990   0.0000   0.3643
   2.000   0.7094   0.00915   0.00319  -0.0785  0.2296  0.2500  -1.4791   0.0000   0.3540
   2.500   0.7653   0.00932   0.00334  -0.0784  0.2240  0.2500  -1.5639   0.0000   0.3451
   3.000   0.8201   0.00953   0.00353  -0.0781  0.2159  0.2500  -1.6501   0.0000   0.3373
   3.500   0.8750   0.00971   0.00371  -0.0779  0.2108  0.2500  -1.7420   0.0000   0.3304
   4.000   0.9287   0.00996   0.00393  -0.0774  0.2034  0.2500  -1.8379   0.0000   0.3241
   4.500   0.9825   0.01018   0.00415  -0.0769  0.1983  0.2500  -1.9355   0.0000   0.3185
   5.000   1.0341   0.01047   0.00442  -0.0761  0.1905  0.2500  -2.0318   0.0000   0.3131
   5.500   1.0853   0.01074   0.00469  -0.0752  0.1848  0.2500  -2.1323   0.0000   0.3082
   6.000   1.1352   0.01108   0.00501  -0.0741  0.1772  0.2500  -2.2343   0.0000   0.3035
   6.500   1.1852   0.01141   0.00534  -0.0731  0.1712  0.2500  -2.3447   0.0000   0.2992
   7.000   1.2340   0.01179   0.00571  -0.0719  0.1637  0.2500  -2.4594   0.0000   0.2951
   7.500   1.2819   0.01219   0.00611  -0.0706  0.1574  0.2500  -2.5775   0.0000   0.2912
   8.000   1.3282   0.01262   0.00655  -0.0690  0.1508  0.2500  -2.7046   0.0000   0.2874
   8.500   1.3712   0.01318   0.00709  -0.0670  0.1419  0.2500  -2.8286   0.0000   0.2835
   9.000   1.4145   0.01374   0.00764  -0.0650  0.1343  0.2500  -2.9635   0.0000   0.2798
   9.500   1.4563   0.01434   0.00824  -0.0629  0.1272  0.2500  -3.1058   0.0000   0.2762
  10.000   1.4945   0.01509   0.00898  -0.0603  0.1186  0.2500  -3.2545   0.0000   0.2725
  10.500   1.5303   0.01594   0.00982  -0.0574  0.1099  0.2500  -3.4009   0.0000   0.2689
  11.000   1.5668   0.01679   0.01068  -0.0547  0.1036  0.2500  -3.5709   0.0000   0.2654
  11.500   1.5977   0.01789   0.01177  -0.0515  0.0949  0.2500  -3.7379   0.0000   0.2618
  12.000   1.6271   0.01912   0.01300  -0.0482  0.0877  0.2500  -3.9136   0.0000   0.2583
  12.500   1.6530   0.02059   0.01448  -0.0448  0.0802  0.2500  -4.0906   0.0000   0.2548
  13.000   1.6801   0.02207   0.01600  -0.0418  0.0753  0.2500  -4.2727   0.0000   0.2516
  13.500   1.7010   0.02400   0.01794  -0.0384  0.0684  0.2500  -4.4474   0.0000   0.2483
  14.000   1.7189   0.02626   0.02023  -0.0352  0.0625  0.2500  -4.6270   0.0000   0.2451
  14.500   1.7356   0.02875   0.02276  -0.0324  0.0579  0.2500  -4.8080   0.0000   0.2422
  15.000   1.7496   0.03162   0.02569  -0.0298  0.0535  0.2500  -4.9829   0.0000   0.2395
  15.500   1.7579   0.03514   0.02926  -0.0276  0.0493  0.2500  -5.1416   0.0000   0.2369
  16.000   1.7687   0.03870   0.03291  -0.0261  0.0468  0.2500  -5.3080   0.0000   0.2348
  16.500   1.7679   0.04354   0.03783  -0.0248  0.0429  0.2500  -5.4379   0.0000   0.2328
  17.000   1.7674   0.04866   0.04305  -0.0243  0.0403  0.2500  -5.5759   0.0000   0.2312
  17.500   1.7562   0.05519   0.04968  -0.0245  0.0372  0.2500  -5.6775   0.0000   0.2300
  18.000   1.7477   0.06175   0.05638  -0.0254  0.0358  0.2500  -5.7861   0.0000   0.2292
  18.500   1.7273   0.06993   0.06470  -0.0272  0.0340  0.2500  -5.8478   0.0000   0.2290
  19.000   1.7002   0.07921   0.07414  -0.0298  0.0322  0.2500  -5.8846   0.0000   0.2293
  19.500   1.6720   0.08893   0.08403  -0.0332  0.0311  0.2500  -5.9116   0.0000   0.2300
  20.000   1.6365   0.09979   0.09506  -0.0376  0.0298  0.2500  -5.8997   0.0000   0.2316
  20.500   1.6027   0.11068   0.10610  -0.0427  0.0282  0.2500  -5.8839   0.0000   0.2337
  21.000   1.5781   0.12041   0.11598  -0.0479  0.0274  0.2500  -5.8992   0.0000   0.2358
  21.500   1.5542   0.13021   0.12591  -0.0536  0.0264  0.2500  -5.9084   0.0000   0.2383
  22.000   1.5332   0.13965   0.13547  -0.0596  0.0252  0.2500  -5.9214   0.0000   0.2411
  22.500   1.5168   0.14849   0.14443  -0.0658  0.0241  0.2500  -5.9486   0.0000   0.2440
  23.000   1.5079   0.15626   0.15230  -0.0715  0.0233  0.2500  -6.0081   0.0000   0.2464
  23.500   1.4984   0.16414   0.16028  -0.0777  0.0222  0.2500  -6.0625   0.0000   0.2491
  24.000   1.4885   0.17209   0.16831  -0.0843  0.0209  0.2500  -6.1080   0.0000   0.2522
  24.500   1.4838   0.17919   0.17551  -0.0904  0.0202  0.2500  -6.1783   0.0000   0.2548
  25.000   1.4793   0.18628   0.18269  -0.0968  0.0193  0.2500  -6.2447   0.0000   0.2575


