xflr5 v6.47

 Calculated polar for: NACA24018_theta30_Ku4.5_Kl0.5_d0.21_delta5.84

 1 1 Reynolds number fixed          Mach number fixed         

 xtrf =   0.250 (top)        0.250 (bottom)
 Mach =   0.000     Re =     4.000 e 6     Ncrit =   5.000

  alpha     CL        CD       CDp       Cm    Top Xtr Bot Xtr   Cpmin    Chinge    XCp    
 ------- -------- --------- --------- -------- ------- ------- -------- --------- ---------
 -15.000  -0.7271   0.02219   0.01642  -0.1272  0.2500  0.0272  -5.6295   0.0000   0.0487
 -14.500  -0.6626   0.02179   0.01600  -0.1300  0.2500  0.0283  -5.2486   0.0000   0.0269
 -14.000  -0.5972   0.02151   0.01569  -0.1328  0.2500  0.0290  -4.8830   0.0000  -0.0000
 -13.500  -0.5284   0.02127   0.01543  -0.1363  0.2500  0.0306  -4.5235   0.0000  -0.0368
 -13.000  -0.4602   0.02114   0.01528  -0.1393  0.2500  0.0319  -4.1753   0.0000  -0.0835
 -12.500  -0.3911   0.02107   0.01520  -0.1425  0.2500  0.0335  -3.8353   0.0000  -0.1477
 -12.000  -0.3211   0.02107   0.01519  -0.1457  0.2500  0.0355  -3.5030   0.0000  -0.2414
 -11.500  -0.2504   0.02113   0.01523  -0.1490  0.2500  0.0377  -3.1831   0.0000  -0.3896
 -11.000  -0.1808   0.02124   0.01534  -0.1520  0.2500  0.0399  -2.8865   0.0000  -0.6476
 -10.500  -0.1101   0.02140   0.01550  -0.1552  0.2500  0.0431  -2.5977   0.0000  -1.2448
 -10.000  -0.0399   0.02160   0.01570  -0.1582  0.2500  0.0463  -2.3285   0.0000  -3.9269
  -9.500   0.0299   0.02184   0.01594  -0.1611  0.2500  0.0498  -2.0734   0.0000   5.8967
  -9.000   0.0997   0.02211   0.01622  -0.1639  0.2500  0.0535  -1.8363   0.0000   1.9666
  -8.500   0.1693   0.02242   0.01653  -0.1667  0.2500  0.0583  -1.6110   0.0000   1.2730
  -8.000   0.2394   0.02277   0.01690  -0.1695  0.2500  0.0652  -1.3938   0.0000   0.9826
  -7.500   0.3088   0.02315   0.01729  -0.1722  0.2500  0.0727  -1.1878   0.0000   0.8245
  -7.000   0.3779   0.02355   0.01772  -0.1748  0.2500  0.0819  -1.0081   0.0000   0.7246
  -6.500   0.4482   0.02399   0.01820  -0.1775  0.2500  0.0949  -0.8369   0.0000   0.6549
  -6.000   0.5183   0.02447   0.01872  -0.1803  0.2500  0.1107  -0.8970   0.0000   0.6040
  -5.500   0.5899   0.02499   0.01930  -0.1832  0.2500  0.1329  -0.9706   0.0000   0.5650
  -5.000   0.6638   0.02559   0.01997  -0.1866  0.2500  0.1668  -1.0499   0.0000   0.5340
  -4.000   0.8134   0.02694   0.02151  -0.1937  0.2500  0.2500  -1.2193   0.0000   0.4885
  -3.500   0.8709   0.02737   0.02193  -0.1939  0.2500  0.2500  -1.2926   0.0000   0.4720
  -3.000   0.9280   0.02780   0.02236  -0.1940  0.2500  0.2500  -1.3691   0.0000   0.4575
  -2.500   0.9847   0.02825   0.02281  -0.1940  0.2500  0.2500  -1.4503   0.0000   0.4447
  -2.000   1.0411   0.02870   0.02325  -0.1939  0.2490  0.2500  -1.5322   0.0000   0.4332
  -1.500   1.0967   0.02912   0.02363  -0.1937  0.2405  0.2500  -1.6148   0.0000   0.4228
  -1.000   1.1520   0.02957   0.02406  -0.1935  0.2353  0.2500  -1.7052   0.0000   0.4134
  -0.500   1.2066   0.03002   0.02448  -0.1931  0.2282  0.2500  -1.7960   0.0000   0.4047
   0.000   1.2606   0.03049   0.02492  -0.1926  0.2204  0.2500  -1.8874   0.0000   0.3968
   0.500   1.3136   0.03099   0.02537  -0.1920  0.2115  0.2500  -1.9790   0.0000   0.3894
   1.000   1.3664   0.03149   0.02587  -0.1913  0.2062  0.2500  -2.0788   0.0000   0.3825
   1.500   1.4183   0.03202   0.02638  -0.1904  0.1998  0.2500  -2.1834   0.0000   0.3761
   2.000   1.4695   0.03257   0.02691  -0.1894  0.1929  0.2500  -2.2886   0.0000   0.3700
   2.500   1.5192   0.03316   0.02746  -0.1882  0.1842  0.2500  -2.3936   0.0000   0.3643
   3.000   1.5690   0.03376   0.02806  -0.1870  0.1781  0.2500  -2.5022   0.0000   0.3588
   3.500   1.6170   0.03443   0.02870  -0.1855  0.1695  0.2500  -2.6166   0.0000   0.3536
   4.000   1.6647   0.03513   0.02939  -0.1840  0.1631  0.2500  -2.7394   0.0000   0.3486
   4.500   1.7107   0.03590   0.03014  -0.1822  0.1551  0.2500  -2.8690   0.0000   0.3438
   5.000   1.7536   0.03683   0.03104  -0.1800  0.1461  0.2500  -2.9991   0.0000   0.3390
   5.500   1.7954   0.03783   0.03203  -0.1775  0.1387  0.2500  -3.1361   0.0000   0.3344
   6.000   1.8362   0.03888   0.03306  -0.1750  0.1301  0.2500  -3.2814   0.0000   0.3300
   6.500   1.8765   0.03997   0.03415  -0.1724  0.1226  0.2500  -3.4298   0.0000   0.3257
   7.000   1.9141   0.04122   0.03537  -0.1695  0.1138  0.2500  -3.5950   0.0000   0.3214
   7.500   1.9458   0.04283   0.03696  -0.1657  0.1037  0.2500  -3.7571   0.0000   0.3171
   8.000   1.9772   0.04449   0.03859  -0.1620  0.0944  0.2500  -3.9406   0.0000   0.3129
   8.500   2.0070   0.04627   0.04038  -0.1582  0.0865  0.2500  -4.1346   0.0000   0.3088
   9.000   2.0341   0.04828   0.04240  -0.1541  0.0804  0.2500  -4.3258   0.0000   0.3047
   9.500   2.0586   0.05050   0.04462  -0.1498  0.0735  0.2500  -4.5134   0.0000   0.3007
  10.000   2.0780   0.05311   0.04725  -0.1451  0.0663  0.2500  -4.6920   0.0000   0.2967
  10.500   2.0943   0.05608   0.05024  -0.1403  0.0601  0.2500  -4.8838   0.0000   0.2927
  11.000   2.1091   0.05926   0.05347  -0.1357  0.0550  0.2500  -5.0783   0.0000   0.2889
  11.500   2.1201   0.06287   0.05713  -0.1311  0.0501  0.2500  -5.2663   0.0000   0.2852
  12.000   2.1282   0.06688   0.06121  -0.1267  0.0464  0.2500  -5.4475   0.0000   0.2816
  12.500   2.1330   0.07139   0.06580  -0.1227  0.0432  0.2500  -5.6195   0.0000   0.2783
  13.000   2.1326   0.07657   0.07106  -0.1190  0.0396  0.2500  -5.7805   0.0000   0.2753
  13.500   2.1292   0.08222   0.07681  -0.1161  0.0364  0.2500  -5.9315   0.0000   0.2725
  14.000   2.1261   0.08793   0.08264  -0.1139  0.0342  0.2500  -6.0819   0.0000   0.2702
  14.500   2.1169   0.09448   0.08930  -0.1126  0.0320  0.2500  -6.2143   0.0000   0.2683
  15.000   2.1074   0.10119   0.09614  -0.1122  0.0302  0.2500  -6.3474   0.0000   0.2667
  15.500   2.0943   0.10840   0.10349  -0.1128  0.0286  0.2500  -6.4623   0.0000   0.2657
  16.000   2.0807   0.11577   0.11100  -0.1143  0.0271  0.2500  -6.5701   0.0000   0.2651
  16.500   2.0625   0.12382   0.11919  -0.1169  0.0256  0.2500  -6.6522   0.0000   0.2651
  17.000   2.0458   0.13174   0.12725  -0.1203  0.0244  0.2500  -6.7343   0.0000   0.2655
  17.500   2.0243   0.14032   0.13598  -0.1248  0.0232  0.2500  -6.7876   0.0000   0.2664
  18.000   2.0049   0.14864   0.14445  -0.1298  0.0223  0.2500  -6.8430   0.0000   0.2676
  18.500   1.9860   0.15692   0.15288  -0.1353  0.0214  0.2500  -6.8931   0.0000   0.2691
  19.000   1.9663   0.16531   0.16140  -0.1415  0.0204  0.2500  -6.9317   0.0000   0.2709
  19.500   1.9516   0.17298   0.16919  -0.1474  0.0195  0.2500  -6.9909   0.0000   0.2725
  20.000   1.9335   0.18118   0.17752  -0.1543  0.0186  0.2500  -7.0320   0.0000   0.2748
  20.500   1.9188   0.18882   0.18526  -0.1611  0.0175  0.2500  -7.0860   0.0000   0.2768
  21.000   1.9089   0.19568   0.19223  -0.1675  0.0168  0.2500  -7.1630   0.0000   0.2785
  21.500   1.8979   0.20264   0.19929  -0.1742  0.0160  0.2500  -7.2281   0.0000   0.2805
  22.000   1.8883   0.20934   0.20609  -0.1810  0.0152  0.2500  -7.2965   0.0000   0.2824
  22.500   1.8828   0.21534   0.21218  -0.1872  0.0147  0.2500  -7.3878   0.0000   0.2838
  23.000   1.8788   0.22100   0.21793  -0.1932  0.0140  0.2500  -7.4868   0.0000   0.2850
  23.500   1.8705   0.22737   0.22438  -0.2003  0.0133  0.2500  -7.5498   0.0000   0.2870
  24.000   1.8651   0.23318   0.23028  -0.2069  0.0129  0.2500  -7.6294   0.0000   0.2886
  24.500   1.8595   0.23892   0.23611  -0.2136  0.0124  0.2500  -7.7045   0.0000   0.2902
  25.000   1.8546   0.24447   0.24174  -0.2203  0.0118  0.2500  -7.7804   0.0000   0.2918


