xflr5 v6.47

 Calculated polar for: NACA24018_theta30_Ku4.5_Kl0.5_d0.21_delta5.84

 1 1 Reynolds number fixed          Mach number fixed         

 xtrf =   0.250 (top)        0.250 (bottom)
 Mach =   0.000     Re =     3.000 e 6     Ncrit =   5.000

  alpha     CL        CD       CDp       Cm    Top Xtr Bot Xtr   Cpmin    Chinge    XCp    
 ------- -------- --------- --------- -------- ------- ------- -------- --------- ---------
 -15.000  -0.7475   0.02316   0.01719  -0.1221  0.2500  0.0283  -5.6851   0.0000   0.0609
 -14.500  -0.6854   0.02265   0.01663  -0.1247  0.2500  0.0291  -5.3121   0.0000   0.0420
 -14.000  -0.6201   0.02221   0.01616  -0.1278  0.2500  0.0305  -4.9436   0.0000   0.0173
 -13.500  -0.5540   0.02191   0.01584  -0.1307  0.2500  0.0317  -4.5909   0.0000  -0.0136
 -13.000  -0.4863   0.02170   0.01560  -0.1339  0.2500  0.0330  -4.2433   0.0000  -0.0544
 -12.500  -0.4172   0.02156   0.01544  -0.1371  0.2500  0.0350  -3.9015   0.0000  -0.1100
 -12.000  -0.3485   0.02150   0.01537  -0.1402  0.2500  0.0368  -3.5711   0.0000  -0.1869
 -11.500  -0.2784   0.02151   0.01537  -0.1435  0.2500  0.0391  -3.2484   0.0000  -0.3052
 -11.000  -0.2078   0.02158   0.01543  -0.1467  0.2500  0.0419  -2.9477   0.0000  -0.5055
 -10.500  -0.1384   0.02171   0.01554  -0.1497  0.2500  0.0444  -2.6599   0.0000  -0.8997
 -10.000  -0.0681   0.02188   0.01571  -0.1528  0.2500  0.0480  -2.3859   0.0000  -2.1213
  -9.500   0.0022   0.02209   0.01593  -0.1558  0.2500  0.0518  -2.1282   0.0000  75.9733
  -9.000   0.0722   0.02235   0.01619  -0.1587  0.2500  0.0561  -1.8863   0.0000   2.5472
  -8.500   0.1424   0.02265   0.01649  -0.1616  0.2500  0.0614  -1.6583   0.0000   1.4307
  -8.000   0.2125   0.02298   0.01684  -0.1645  0.2500  0.0683  -1.4392   0.0000   1.0515
  -7.500   0.2815   0.02335   0.01722  -0.1671  0.2500  0.0756  -1.2308   0.0000   0.8620
  -7.000   0.3517   0.02376   0.01766  -0.1699  0.2500  0.0861  -1.0456   0.0000   0.7459
  -6.500   0.4219   0.02420   0.01814  -0.1726  0.2500  0.1000  -0.8715   0.0000   0.6685
  -6.000   0.4925   0.02468   0.01866  -0.1755  0.2500  0.1174  -0.8798   0.0000   0.6129
  -5.500   0.5663   0.02523   0.01929  -0.1789  0.2500  0.1445  -0.9540   0.0000   0.5704
  -5.000   0.6459   0.02592   0.02009  -0.1834  0.2500  0.1920  -1.0364   0.0000   0.5369
  -4.500   0.7277   0.02670   0.02101  -0.1883  0.2500  0.2500  -1.1253   0.0000   0.5103
  -4.000   0.7858   0.02713   0.02142  -0.1886  0.2500  0.2500  -1.1978   0.0000   0.4905
  -3.500   0.8435   0.02757   0.02185  -0.1889  0.2500  0.2500  -1.2709   0.0000   0.4733
  -3.000   0.9009   0.02801   0.02228  -0.1890  0.2500  0.2500  -1.3461   0.0000   0.4583
  -2.500   0.9579   0.02845   0.02273  -0.1891  0.2500  0.2500  -1.4271   0.0000   0.4451
  -2.000   1.0145   0.02890   0.02318  -0.1891  0.2500  0.2500  -1.5088   0.0000   0.4333
  -1.500   1.0708   0.02935   0.02364  -0.1890  0.2500  0.2500  -1.5913   0.0000   0.4226
  -1.000   1.1262   0.02980   0.02407  -0.1888  0.2450  0.2500  -1.6803   0.0000   0.4130
  -0.500   1.1808   0.03027   0.02451  -0.1884  0.2372  0.2500  -1.7707   0.0000   0.4043
   0.000   1.2352   0.03076   0.02498  -0.1880  0.2314  0.2500  -1.8621   0.0000   0.3962
   0.500   1.2884   0.03127   0.02545  -0.1874  0.2222  0.2500  -1.9533   0.0000   0.3887
   1.000   1.3413   0.03180   0.02597  -0.1868  0.2156  0.2500  -2.0508   0.0000   0.3818
   1.500   1.3930   0.03235   0.02649  -0.1859  0.2082  0.2500  -2.1547   0.0000   0.3753
   2.000   1.4445   0.03291   0.02705  -0.1850  0.2031  0.2500  -2.2599   0.0000   0.3691
   2.500   1.4943   0.03353   0.02764  -0.1838  0.1946  0.2500  -2.3644   0.0000   0.3633
   3.000   1.5438   0.03417   0.02827  -0.1826  0.1879  0.2500  -2.4716   0.0000   0.3579
   3.500   1.5920   0.03486   0.02895  -0.1812  0.1804  0.2500  -2.5844   0.0000   0.3526
   4.000   1.6385   0.03564   0.02972  -0.1795  0.1730  0.2500  -2.7041   0.0000   0.3476
   4.500   1.6836   0.03651   0.03059  -0.1776  0.1664  0.2500  -2.8297   0.0000   0.3427
   5.000   1.7265   0.03745   0.03151  -0.1754  0.1574  0.2500  -2.9593   0.0000   0.3380
   5.500   1.7690   0.03843   0.03248  -0.1731  0.1493  0.2500  -3.0935   0.0000   0.3334
   6.000   1.8114   0.03943   0.03349  -0.1709  0.1426  0.2500  -3.2404   0.0000   0.3290
   6.500   1.8504   0.04062   0.03465  -0.1681  0.1332  0.2500  -3.3840   0.0000   0.3247
   7.000   1.8860   0.04204   0.03607  -0.1650  0.1254  0.2500  -3.5423   0.0000   0.3203
   8.000   1.9525   0.04515   0.03916  -0.1582  0.1072  0.2500  -3.8835   0.0000   0.3120
   8.500   1.9797   0.04717   0.04118  -0.1541  0.0984  0.2500  -4.0705   0.0000   0.3078
   9.000   2.0076   0.04917   0.04318  -0.1502  0.0907  0.2500  -4.2617   0.0000   0.3038
  10.000   2.0508   0.05417   0.04823  -0.1414  0.0772  0.2500  -4.6234   0.0000   0.2958
  10.500   2.0674   0.05717   0.05126  -0.1369  0.0702  0.2500  -4.8100   0.0000   0.2919
  11.000   2.0801   0.06060   0.05474  -0.1322  0.0641  0.2500  -4.9944   0.0000   0.2881
  11.500   2.0898   0.06441   0.05861  -0.1277  0.0589  0.2500  -5.1766   0.0000   0.2844
  12.000   2.0955   0.06876   0.06303  -0.1235  0.0541  0.2500  -5.3485   0.0000   0.2810
  12.500   2.0982   0.07359   0.06795  -0.1198  0.0498  0.2500  -5.5114   0.0000   0.2778
  13.000   2.0999   0.07867   0.07313  -0.1167  0.0466  0.2500  -5.6733   0.0000   0.2749
  13.500   2.0964   0.08440   0.07897  -0.1141  0.0435  0.2500  -5.8210   0.0000   0.2724
  14.000   2.0881   0.09082   0.08550  -0.1124  0.0402  0.2500  -5.9503   0.0000   0.2703
  14.500   2.0795   0.09742   0.09223  -0.1116  0.0375  0.2500  -6.0750   0.0000   0.2686
  15.000   2.0675   0.10453   0.09948  -0.1118  0.0353  0.2500  -6.1917   0.0000   0.2674
  15.500   2.0529   0.11203   0.10712  -0.1130  0.0333  0.2500  -6.2956   0.0000   0.2667
  16.000   2.0370   0.11983   0.11507  -0.1152  0.0316  0.2500  -6.3878   0.0000   0.2665
  16.500   2.0192   0.12795   0.12335  -0.1184  0.0299  0.2500  -6.4651   0.0000   0.2669
  17.000   2.0005   0.13624   0.13178  -0.1224  0.0286  0.2500  -6.5316   0.0000   0.2676
  17.500   1.9828   0.14437   0.14006  -0.1269  0.0272  0.2500  -6.5960   0.0000   0.2686
  18.000   1.9598   0.15333   0.14917  -0.1328  0.0258  0.2500  -6.6266   0.0000   0.2704
  18.500   1.9418   0.16162   0.15761  -0.1387  0.0247  0.2500  -6.6739   0.0000   0.2721
  19.000   1.9251   0.16969   0.16581  -0.1448  0.0235  0.2500  -6.7205   0.0000   0.2740
  19.500   1.9115   0.17730   0.17354  -0.1510  0.0224  0.2500  -6.7766   0.0000   0.2758
  20.000   1.8984   0.18482   0.18118  -0.1575  0.0214  0.2500  -6.8328   0.0000   0.2777
  20.500   1.8834   0.19261   0.18909  -0.1646  0.0204  0.2500  -6.8778   0.0000   0.2801
  21.000   1.8753   0.19925   0.19583  -0.1709  0.0194  0.2500  -6.9594   0.0000   0.2817
  21.500   1.8669   0.20587   0.20254  -0.1774  0.0183  0.2500  -7.0346   0.0000   0.2835
  22.000   1.8596   0.21228   0.20904  -0.1839  0.0173  0.2500  -7.1119   0.0000   0.2853
  22.500   1.8527   0.21859   0.21544  -0.1906  0.0165  0.2500  -7.1874   0.0000   0.2871
  23.000   1.8446   0.22507   0.22202  -0.1977  0.0156  0.2500  -7.2486   0.0000   0.2892
  23.500   1.8391   0.23104   0.22808  -0.2044  0.0150  0.2500  -7.3242   0.0000   0.2909
  24.000   1.8345   0.23680   0.23393  -0.2111  0.0144  0.2500  -7.4024   0.0000   0.2926
  24.500   1.8315   0.24218   0.23938  -0.2175  0.0137  0.2500  -7.4896   0.0000   0.2940
  25.000   1.8270   0.24774   0.24502  -0.2242  0.0131  0.2500  -7.5611   0.0000   0.2956


