xflr5 v6.47

 Calculated polar for: NACA24018_theta30_Ku4.5_Kl0.5_d0.10_delta2.45

 1 1 Reynolds number fixed          Mach number fixed         

 xtrf =   0.250 (top)        0.250 (bottom)
 Mach =   0.000     Re =     4.000 e 6     Ncrit =   5.000

  alpha     CL        CD       CDp       Cm    Top Xtr Bot Xtr   Cpmin    Chinge    XCp    
 ------- -------- --------- --------- -------- ------- ------- -------- --------- ---------
 -15.000  -0.9327   0.01808   0.01185  -0.1138  0.2500  0.0223  -6.5012   0.0000   0.1040
 -14.500  -0.9078   0.01717   0.01091  -0.1099  0.2500  0.0231  -6.2345   0.0000   0.1057
 -14.000  -0.8840   0.01637   0.01008  -0.1056  0.2500  0.0239  -5.9737   0.0000   0.1082
 -13.500  -0.8647   0.01568   0.00936  -0.1002  0.2500  0.0247  -5.7310   0.0000   0.1126
 -13.000  -0.8486   0.01507   0.00872  -0.0940  0.2500  0.0252  -5.5021   0.0000   0.1188
 -12.500  -0.8122   0.01445   0.00808  -0.0913  0.2500  0.0261  -5.2106   0.0000   0.1177
 -12.000  -0.7689   0.01387   0.00749  -0.0897  0.2500  0.0273  -4.9083   0.0000   0.1138
 -11.500  -0.7208   0.01338   0.00698  -0.0889  0.2500  0.0283  -4.6041   0.0000   0.1075
 -11.000  -0.6689   0.01295   0.00652  -0.0887  0.2500  0.0292  -4.2960   0.0000   0.0984
 -10.500  -0.6145   0.01252   0.00609  -0.0889  0.2500  0.0310  -3.9895   0.0000   0.0863
 -10.000  -0.5579   0.01217   0.00573  -0.0894  0.2500  0.0322  -3.6851   0.0000   0.0705
  -9.500  -0.4995   0.01185   0.00540  -0.0902  0.2500  0.0340  -3.3971   0.0000   0.0498
  -9.000  -0.4399   0.01156   0.00511  -0.0912  0.2500  0.0360  -3.1140   0.0000   0.0224
  -8.500  -0.3792   0.01131   0.00486  -0.0923  0.2500  0.0382  -2.8455   0.0000  -0.0148
  -8.000  -0.3178   0.01110   0.00464  -0.0936  0.2500  0.0407  -2.5872   0.0000  -0.0674
  -7.500  -0.2557   0.01090   0.00446  -0.0949  0.2500  0.0437  -2.3360   0.0000  -0.1469
  -7.000  -0.1933   0.01074   0.00431  -0.0962  0.2500  0.0472  -2.0926   0.0000  -0.2785
  -6.500  -0.1304   0.01060   0.00418  -0.0977  0.2500  0.0517  -1.8568   0.0000  -0.5393
  -6.000  -0.0672   0.01048   0.00408  -0.0992  0.2500  0.0571  -1.6399   0.0000  -1.2959
  -5.500  -0.0038   0.01039   0.00401  -0.1006  0.2500  0.0630  -1.4435   0.0000  -27.4709
  -5.000   0.0598   0.01031   0.00396  -0.1021  0.2500  0.0704  -1.2603   0.0000   2.0152
  -4.500   0.1235   0.01026   0.00394  -0.1036  0.2500  0.0789  -1.0838   0.0000   1.1128
  -4.000   0.1878   0.01021   0.00394  -0.1053  0.2500  0.0913  -0.9204   0.0000   0.8229
  -3.500   0.2528   0.01017   0.00396  -0.1070  0.2500  0.1082  -0.8207   0.0000   0.6804
  -3.000   0.3188   0.01015   0.00401  -0.1090  0.2500  0.1318  -0.8895   0.0000   0.5957
  -2.500   0.3876   0.01011   0.00409  -0.1116  0.2500  0.1714  -0.9612   0.0000   0.5395
  -2.000   0.4646   0.01002   0.00422  -0.1160  0.2500  0.2500  -1.0406   0.0000   0.4996
  -1.500   0.5244   0.01013   0.00432  -0.1165  0.2500  0.2500  -1.1144   0.0000   0.4710
  -1.000   0.5838   0.01025   0.00443  -0.1170  0.2500  0.2500  -1.1895   0.0000   0.4482
  -0.500   0.6429   0.01038   0.00456  -0.1175  0.2500  0.2500  -1.2652   0.0000   0.4295
   0.000   0.7017   0.01052   0.00470  -0.1178  0.2491  0.2500  -1.3445   0.0000   0.4140
   0.500   0.7597   0.01072   0.00487  -0.1181  0.2416  0.2500  -1.4251   0.0000   0.4008
   1.000   0.8172   0.01093   0.00505  -0.1183  0.2339  0.2500  -1.5063   0.0000   0.3893
   1.500   0.8743   0.01115   0.00525  -0.1183  0.2282  0.2500  -1.5951   0.0000   0.3793
   2.000   0.9306   0.01139   0.00547  -0.1183  0.2209  0.2500  -1.6855   0.0000   0.3704
   2.500   0.9864   0.01165   0.00571  -0.1181  0.2137  0.2500  -1.7766   0.0000   0.3625
   3.000   1.0416   0.01193   0.00596  -0.1179  0.2070  0.2500  -1.8684   0.0000   0.3552
   3.500   1.0964   0.01220   0.00624  -0.1176  0.2017  0.2500  -1.9693   0.0000   0.3486
   4.000   1.1500   0.01254   0.00655  -0.1171  0.1934  0.2500  -2.0709   0.0000   0.3425
   4.500   1.2028   0.01290   0.00689  -0.1165  0.1865  0.2500  -2.1733   0.0000   0.3369
   5.000   1.2554   0.01324   0.00723  -0.1158  0.1809  0.2500  -2.2824   0.0000   0.3316
   5.500   1.3062   0.01366   0.00763  -0.1148  0.1733  0.2500  -2.3952   0.0000   0.3266
   6.000   1.3561   0.01409   0.00807  -0.1137  0.1664  0.2500  -2.5083   0.0000   0.3218
   6.500   1.4032   0.01463   0.00858  -0.1121  0.1586  0.2500  -2.6243   0.0000   0.3171
   7.000   1.4512   0.01511   0.00908  -0.1107  0.1531  0.2500  -2.7546   0.0000   0.3127
   7.500   1.4967   0.01571   0.00966  -0.1090  0.1447  0.2500  -2.8831   0.0000   0.3085
   8.000   1.5401   0.01642   0.01034  -0.1069  0.1346  0.2500  -3.0146   0.0000   0.3043
   8.500   1.5822   0.01714   0.01106  -0.1046  0.1280  0.2500  -3.1570   0.0000   0.3002
   9.000   1.6233   0.01791   0.01184  -0.1023  0.1213  0.2500  -3.3144   0.0000   0.2962
   9.500   1.6614   0.01884   0.01275  -0.0995  0.1121  0.2500  -3.4740   0.0000   0.2922
  10.000   1.6950   0.01995   0.01385  -0.0961  0.1030  0.2500  -3.6329   0.0000   0.2882
  10.500   1.7283   0.02113   0.01502  -0.0929  0.0949  0.2500  -3.8123   0.0000   0.2843
  11.000   1.7592   0.02243   0.01632  -0.0894  0.0882  0.2500  -3.9918   0.0000   0.2804
  11.500   1.7866   0.02396   0.01786  -0.0856  0.0805  0.2500  -4.1734   0.0000   0.2766
  12.000   1.8115   0.02571   0.01962  -0.0818  0.0737  0.2500  -4.3638   0.0000   0.2728
  12.500   1.8341   0.02768   0.02163  -0.0780  0.0680  0.2500  -4.5549   0.0000   0.2692
  13.000   1.8524   0.03005   0.02402  -0.0741  0.0621  0.2500  -4.7395   0.0000   0.2656
  13.500   1.8686   0.03273   0.02674  -0.0705  0.0570  0.2500  -4.9203   0.0000   0.2622
  14.000   1.8844   0.03562   0.02970  -0.0674  0.0532  0.2500  -5.1011   0.0000   0.2591
  14.500   1.8943   0.03913   0.03327  -0.0643  0.0491  0.2500  -5.2714   0.0000   0.2561
  15.000   1.8981   0.04340   0.03761  -0.0616  0.0446  0.2500  -5.4245   0.0000   0.2534
  15.500   1.9014   0.04803   0.04232  -0.0596  0.0416  0.2500  -5.5894   0.0000   0.2511
  16.000   1.8994   0.05340   0.04780  -0.0582  0.0388  0.2500  -5.7395   0.0000   0.2491
  16.500   1.8919   0.05969   0.05421  -0.0576  0.0364  0.2500  -5.8685   0.0000   0.2475
  17.000   1.8814   0.06660   0.06125  -0.0577  0.0345  0.2500  -5.9845   0.0000   0.2463
  17.500   1.8634   0.07466   0.06945  -0.0587  0.0326  0.2500  -6.0691   0.0000   0.2457
  18.000   1.8378   0.08393   0.07889  -0.0607  0.0310  0.2500  -6.1193   0.0000   0.2457
  18.500   1.8117   0.09348   0.08860  -0.0635  0.0299  0.2500  -6.1609   0.0000   0.2461
  19.000   1.7803   0.10393   0.09923  -0.0674  0.0287  0.2500  -6.1718   0.0000   0.2473
  20.000   1.7230   0.12444   0.12006  -0.0773  0.0266  0.2500  -6.1870   0.0000   0.2511
  20.500   1.6980   0.13431   0.13007  -0.0830  0.0256  0.2500  -6.1960   0.0000   0.2534
  21.000   1.6738   0.14418   0.14007  -0.0894  0.0244  0.2500  -6.1980   0.0000   0.2563
  21.500   1.6596   0.15263   0.14865  -0.0954  0.0236  0.2500  -6.2402   0.0000   0.2586
  22.000   1.6482   0.16068   0.15680  -0.1014  0.0226  0.2500  -6.2905   0.0000   0.2609
  22.500   1.6359   0.16881   0.16503  -0.1079  0.0215  0.2500  -6.3294   0.0000   0.2636
  23.000   1.6279   0.17633   0.17265  -0.1142  0.0207  0.2500  -6.3849   0.0000   0.2660
  23.500   1.6209   0.18368   0.18010  -0.1207  0.0198  0.2500  -6.4454   0.0000   0.2685
  24.000   1.6117   0.19141   0.18792  -0.1278  0.0185  0.2500  -6.4968   0.0000   0.2715
  24.500   1.6067   0.19844   0.19503  -0.1344  0.0177  0.2500  -6.5697   0.0000   0.2740
  25.000   1.6017   0.20546   0.20213  -0.1413  0.0168  0.2500  -6.6365   0.0000   0.2767


