xflr5 v6.47

 Calculated polar for: NACA24018_theta30_Ku4.5_Kl0.5_d0.35_delta13.38

 1 1 Reynolds number fixed          Mach number fixed         

 xtrf =   0.250 (top)        0.250 (bottom)
 Mach =   0.000     Re =     1.250 e 6     Ncrit =   5.000

  alpha     CL        CD       CDp       Cm    Top Xtr Bot Xtr   Cpmin    Chinge    XCp    
 ------- -------- --------- --------- -------- ------- ------- -------- --------- ---------
 -15.000  -0.0038   0.05777   0.05225  -0.1637  0.2500  0.0534  -2.9769   0.0000  -45.6029
 -14.500   0.0680   0.05909   0.05352  -0.1677  0.2500  0.0565  -2.6716   0.0000   2.8659
 -14.000   0.1400   0.06054   0.05495  -0.1715  0.2500  0.0601  -2.3795   0.0000   1.5412
 -13.500   0.2106   0.06209   0.05647  -0.1750  0.2500  0.0642  -2.1237   0.0000   1.1195
 -13.000   0.2816   0.06378   0.05814  -0.1784  0.2500  0.0695  -1.8754   0.0000   0.9089
 -12.500   0.3509   0.06552   0.05987  -0.1815  0.2500  0.0756  -1.6393   0.0000   0.7847
 -12.000   0.4198   0.06735   0.06170  -0.1844  0.2500  0.0832  -1.4126   0.0000   0.7015
 -11.500   0.4885   0.06926   0.06360  -0.1872  0.2500  0.0921  -1.1954   0.0000   0.6417
 -11.000   0.5576   0.07129   0.06564  -0.1901  0.2500  0.1035  -1.0167   0.0000   0.5964
 -10.500   0.6268   0.07343   0.06780  -0.1928  0.2500  0.1180  -1.0372   0.0000   0.5609
 -10.000   0.6964   0.07569   0.07009  -0.1956  0.2500  0.1369  -1.0577   0.0000   0.5323
  -9.500   0.7707   0.07834   0.07279  -0.1991  0.2500  0.1658  -1.0816   0.0000   0.5082
  -9.000   0.8539   0.08169   0.07622  -0.2039  0.2500  0.2134  -1.1125   0.0000   0.4873
  -8.500   0.9277   0.08455   0.07913  -0.2072  0.2500  0.2500  -1.1484   0.0000   0.4706
  -8.000   0.9785   0.08591   0.08045  -0.2067  0.2500  0.2500  -1.2141   0.0000   0.4576
  -7.500   1.0290   0.08726   0.08178  -0.2062  0.2500  0.2500  -1.2831   0.0000   0.4458
  -7.000   1.0785   0.08856   0.08306  -0.2056  0.2500  0.2500  -1.3557   0.0000   0.4351
  -6.500   1.1270   0.08981   0.08430  -0.2047  0.2500  0.2500  -1.4282   0.0000   0.4253
  -6.000   1.1750   0.09104   0.08554  -0.2038  0.2500  0.2500  -1.5014   0.0000   0.4163
  -5.500   1.2219   0.09229   0.08678  -0.2027  0.2500  0.2500  -1.5783   0.0000   0.4079
  -5.000   1.2681   0.09353   0.08803  -0.2016  0.2500  0.2500  -1.6580   0.0000   0.4002
  -4.500   1.3139   0.09474   0.08926  -0.2004  0.2500  0.2500  -1.7382   0.0000   0.3929
  -4.000   1.3594   0.09591   0.09046  -0.1991  0.2500  0.2500  -1.8207   0.0000   0.3861
  -3.500   1.4047   0.09707   0.09164  -0.1978  0.2500  0.2500  -1.9095   0.0000   0.3797
  -3.000   1.4498   0.09821   0.09282  -0.1964  0.2500  0.2500  -1.9991   0.0000   0.3736
  -2.500   1.4939   0.09930   0.09394  -0.1949  0.2500  0.2500  -2.0886   0.0000   0.3678
  -2.000   1.5370   0.10035   0.09502  -0.1933  0.2466  0.2500  -2.1798   0.0000   0.3623
  -1.500   1.5786   0.10141   0.09605  -0.1916  0.2376  0.2500  -2.2763   0.0000   0.3571
  -1.000   1.6195   0.10246   0.09708  -0.1897  0.2300  0.2500  -2.3729   0.0000   0.3521
  -0.500   1.6599   0.10350   0.09813  -0.1878  0.2230  0.2500  -2.4718   0.0000   0.3473
   0.000   1.6991   0.10458   0.09919  -0.1858  0.2151  0.2500  -2.5768   0.0000   0.3426
   0.500   1.7377   0.10565   0.10026  -0.1837  0.2072  0.2500  -2.6860   0.0000   0.3381
   1.000   1.7742   0.10686   0.10146  -0.1814  0.1999  0.2500  -2.7936   0.0000   0.3338
   1.500   1.8103   0.10808   0.10271  -0.1791  0.1932  0.2500  -2.9065   0.0000   0.3296
   2.000   1.8447   0.10929   0.10390  -0.1767  0.1848  0.2500  -3.0263   0.0000   0.3255
   2.500   1.8787   0.11044   0.10506  -0.1742  0.1774  0.2500  -3.1525   0.0000   0.3215
   3.000   1.9114   0.11161   0.10624  -0.1716  0.1700  0.2500  -3.2813   0.0000   0.3175
   3.500   1.9422   0.11287   0.10750  -0.1689  0.1617  0.2500  -3.4246   0.0000   0.3137
   4.000   1.9709   0.11431   0.10896  -0.1661  0.1537  0.2500  -3.5688   0.0000   0.3100
   4.500   1.9977   0.11582   0.11048  -0.1632  0.1455  0.2500  -3.7252   0.0000   0.3063
   5.000   2.0233   0.11735   0.11200  -0.1602  0.1369  0.2500  -3.8905   0.0000   0.3027
   5.500   2.0482   0.11894   0.11361  -0.1573  0.1288  0.2500  -4.0643   0.0000   0.2992
   6.500   2.0898   0.12272   0.11743  -0.1513  0.1132  0.2500  -4.4260   0.0000   0.2923
   7.000   2.1047   0.12501   0.11974  -0.1481  0.1046  0.2500  -4.6038   0.0000   0.2890
   7.500   2.1188   0.12731   0.12206  -0.1451  0.0967  0.2500  -4.7895   0.0000   0.2857
   8.500   2.1380   0.13274   0.12757  -0.1395  0.0823  0.2500  -5.1398   0.0000   0.2796
   9.000   2.1439   0.13579   0.13069  -0.1370  0.0761  0.2500  -5.3050   0.0000   0.2768
   9.500   2.1462   0.13917   0.13414  -0.1350  0.0699  0.2500  -5.4589   0.0000   0.2741
  10.000   2.1461   0.14277   0.13781  -0.1335  0.0640  0.2500  -5.6044   0.0000   0.2717
  10.500   2.1447   0.14651   0.14164  -0.1325  0.0593  0.2500  -5.7492   0.0000   0.2695
  11.000   2.1399   0.15059   0.14583  -0.1321  0.0552  0.2500  -5.8863   0.0000   0.2677
  11.500   2.1353   0.15461   0.14995  -0.1323  0.0512  0.2500  -6.0225   0.0000   0.2660
  12.000   2.1269   0.15900   0.15446  -0.1332  0.0475  0.2500  -6.1488   0.0000   0.2648
  12.500   2.1161   0.16360   0.15919  -0.1350  0.0441  0.2500  -6.2645   0.0000   0.2638
  13.000   2.1022   0.16858   0.16430  -0.1376  0.0409  0.2500  -6.3620   0.0000   0.2634
  13.500   2.0902   0.17332   0.16918  -0.1405  0.0383  0.2500  -6.4645   0.0000   0.2630
  14.000   2.0736   0.17864   0.17464  -0.1445  0.0359  0.2500  -6.5395   0.0000   0.2632
  14.500   2.0591   0.18371   0.17985  -0.1487  0.0337  0.2500  -6.6201   0.0000   0.2634
  15.000   2.0427   0.18903   0.18532  -0.1535  0.0319  0.2500  -6.6850   0.0000   0.2639
  15.500   2.0267   0.19431   0.19073  -0.1586  0.0299  0.2500  -6.7474   0.0000   0.2646
  16.000   2.0114   0.19950   0.19605  -0.1639  0.0282  0.2500  -6.8078   0.0000   0.2653
  16.500   1.9968   0.20460   0.20126  -0.1694  0.0263  0.2500  -6.8675   0.0000   0.2662
  17.000   1.9830   0.20956   0.20634  -0.1749  0.0247  0.2500  -6.9270   0.0000   0.2670
  17.500   1.9698   0.21442   0.21132  -0.1806  0.0231  0.2500  -6.9846   0.0000   0.2679
  18.000   1.9582   0.21900   0.21601  -0.1861  0.0218  0.2500  -7.0478   0.0000   0.2686


