xflr5 v6.47

 Calculated polar for: NACA24018_theta30_Ku4.5_Kl0.5_d0.21_delta5.84

 1 1 Reynolds number fixed          Mach number fixed         

 xtrf =   0.250 (top)        0.250 (bottom)
 Mach =   0.000     Re =     0.900 e 6     Ncrit =   5.000

  alpha     CL        CD       CDp       Cm    Top Xtr Bot Xtr   Cpmin    Chinge    XCp    
 ------- -------- --------- --------- -------- ------- ------- -------- --------- ---------
 -15.000  -0.7723   0.03025   0.02334  -0.1064  0.2500  0.0345  -5.6637   0.0000   0.0874
 -14.500  -0.7390   0.02875   0.02175  -0.1059  0.2500  0.0355  -5.3983   0.0000   0.0825
 -14.000  -0.6952   0.02744   0.02036  -0.1067  0.2500  0.0366  -5.1017   0.0000   0.0725
 -13.500  -0.6432   0.02641   0.01928  -0.1084  0.2500  0.0382  -4.7853   0.0000   0.0574
 -13.000  -0.5863   0.02563   0.01841  -0.1105  0.2500  0.0398  -4.4715   0.0000   0.0371
 -12.500  -0.5243   0.02492   0.01766  -0.1133  0.2500  0.0417  -4.1500   0.0000   0.0086
 -12.000  -0.4610   0.02444   0.01712  -0.1160  0.2500  0.0439  -3.8321   0.0000  -0.0282
 -11.500  -0.3944   0.02404   0.01668  -0.1192  0.2500  0.0466  -3.5139   0.0000  -0.0808
 -11.000  -0.3268   0.02378   0.01637  -0.1224  0.2500  0.0493  -3.2067   0.0000  -0.1562
 -10.500  -0.2585   0.02362   0.01618  -0.1255  0.2500  0.0529  -2.9161   0.0000  -0.2723
 -10.000  -0.1886   0.02354   0.01608  -0.1289  0.2500  0.0568  -2.6314   0.0000  -0.4791
  -9.500  -0.1184   0.02354   0.01606  -0.1322  0.2500  0.0612  -2.3623   0.0000  -0.9336
  -9.000  -0.0477   0.02363   0.01613  -0.1355  0.2500  0.0670  -2.1067   0.0000  -2.7416
  -8.500   0.0231   0.02378   0.01628  -0.1387  0.2500  0.0739  -1.8662   0.0000   6.5463
  -8.000   0.0939   0.02400   0.01650  -0.1419  0.2500  0.0821  -1.6394   0.0000   1.8227
  -7.500   0.1663   0.02428   0.01680  -0.1453  0.2500  0.0932  -1.4183   0.0000   1.1549
  -7.000   0.2387   0.02462   0.01717  -0.1487  0.2500  0.1082  -1.2103   0.0000   0.8919
  -6.500   0.3129   0.02503   0.01764  -0.1524  0.2500  0.1296  -1.0217   0.0000   0.7495
  -5.500   0.4867   0.02638   0.01932  -0.1647  0.2500  0.2500  -0.8999   0.0000   0.5937
  -5.000   0.5471   0.02682   0.01970  -0.1655  0.2500  0.2500  -0.9661   0.0000   0.5560
  -4.500   0.6069   0.02727   0.02011  -0.1662  0.2500  0.2500  -1.0345   0.0000   0.5258
  -4.000   0.6662   0.02773   0.02054  -0.1668  0.2500  0.2500  -1.1061   0.0000   0.5010
  -3.500   0.7249   0.02820   0.02099  -0.1673  0.2500  0.2500  -1.1782   0.0000   0.4803
  -3.000   0.7829   0.02869   0.02146  -0.1676  0.2500  0.2500  -1.2508   0.0000   0.4626
  -2.500   0.8404   0.02919   0.02196  -0.1678  0.2500  0.2500  -1.3263   0.0000   0.4473
  -2.000   0.8972   0.02971   0.02248  -0.1679  0.2500  0.2500  -1.4064   0.0000   0.4340
  -1.500   0.9534   0.03024   0.02302  -0.1679  0.2500  0.2500  -1.4869   0.0000   0.4222
  -1.000   1.0091   0.03079   0.02360  -0.1678  0.2500  0.2500  -1.5679   0.0000   0.4116
  -0.500   1.0641   0.03136   0.02420  -0.1676  0.2500  0.2500  -1.6565   0.0000   0.4020
   0.000   1.1183   0.03196   0.02483  -0.1672  0.2500  0.2500  -1.7455   0.0000   0.3934
   0.500   1.1715   0.03260   0.02551  -0.1667  0.2500  0.2500  -1.8345   0.0000   0.3854
   1.000   1.2239   0.03327   0.02624  -0.1660  0.2500  0.2500  -1.9243   0.0000   0.3781
   1.500   1.2755   0.03397   0.02700  -0.1653  0.2500  0.2500  -2.0209   0.0000   0.3712
   2.000   1.3260   0.03472   0.02778  -0.1643  0.2450  0.2500  -2.1223   0.0000   0.3649
   2.500   1.3745   0.03555   0.02860  -0.1631  0.2369  0.2500  -2.2228   0.0000   0.3588
   3.000   1.4229   0.03637   0.02945  -0.1618  0.2298  0.2500  -2.3245   0.0000   0.3532
   3.500   1.4691   0.03729   0.03038  -0.1602  0.2227  0.2500  -2.4281   0.0000   0.3478
   4.000   1.5155   0.03822   0.03136  -0.1587  0.2164  0.2500  -2.5391   0.0000   0.3426
   4.500   1.5580   0.03936   0.03251  -0.1566  0.2084  0.2500  -2.6525   0.0000   0.3376
   5.000   1.6011   0.04047   0.03368  -0.1547  0.2016  0.2500  -2.7732   0.0000   0.3329
   5.500   1.6417   0.04174   0.03497  -0.1524  0.1942  0.2500  -2.8975   0.0000   0.3283
   6.000   1.6821   0.04300   0.03629  -0.1501  0.1872  0.2500  -3.0263   0.0000   0.3238
   6.500   1.7185   0.04453   0.03787  -0.1474  0.1804  0.2500  -3.1614   0.0000   0.3194
   7.000   1.7542   0.04612   0.03950  -0.1446  0.1727  0.2500  -3.2975   0.0000   0.3152
   7.500   1.7879   0.04787   0.04131  -0.1417  0.1653  0.2500  -3.4483   0.0000   0.3110
   8.000   1.8177   0.04991   0.04340  -0.1384  0.1579  0.2500  -3.5999   0.0000   0.3070
   8.500   1.8458   0.05209   0.04564  -0.1350  0.1493  0.2500  -3.7600   0.0000   0.3030
   9.000   1.8722   0.05445   0.04807  -0.1316  0.1424  0.2500  -3.9350   0.0000   0.2991
   9.500   1.8935   0.05727   0.05096  -0.1279  0.1351  0.2500  -4.1065   0.0000   0.2953
  10.000   1.9118   0.06043   0.05420  -0.1242  0.1273  0.2500  -4.2729   0.0000   0.2916
  10.500   1.9274   0.06393   0.05780  -0.1206  0.1199  0.2500  -4.4339   0.0000   0.2880
  11.000   1.9372   0.06807   0.06203  -0.1171  0.1120  0.2500  -4.5879   0.0000   0.2847
  11.500   1.9438   0.07269   0.06675  -0.1140  0.1050  0.2500  -4.7443   0.0000   0.2816
  12.000   1.9463   0.07787   0.07205  -0.1113  0.0989  0.2500  -4.8892   0.0000   0.2789
  12.500   1.9472   0.08334   0.07765  -0.1093  0.0931  0.2500  -5.0336   0.0000   0.2765
  13.000   1.9428   0.08951   0.08397  -0.1080  0.0873  0.2500  -5.1596   0.0000   0.2745
  13.500   1.9337   0.09638   0.09098  -0.1076  0.0816  0.2500  -5.2669   0.0000   0.2731
  14.000   1.9209   0.10384   0.09859  -0.1083  0.0764  0.2500  -5.3569   0.0000   0.2722
  14.500   1.9077   0.11145   0.10636  -0.1099  0.0717  0.2500  -5.4446   0.0000   0.2719
  15.000   1.8924   0.11948   0.11456  -0.1125  0.0676  0.2500  -5.5180   0.0000   0.2721
  15.500   1.8728   0.12817   0.12342  -0.1164  0.0638  0.2500  -5.5676   0.0000   0.2730
  16.000   1.8547   0.13673   0.13215  -0.1209  0.0601  0.2500  -5.6152   0.0000   0.2743
  16.500   1.8363   0.14535   0.14093  -0.1261  0.0567  0.2500  -5.6556   0.0000   0.2761
  17.000   1.8163   0.15428   0.15001  -0.1322  0.0534  0.2500  -5.6843   0.0000   0.2783
  17.500   1.8004   0.16266   0.15854  -0.1384  0.0502  0.2500  -5.7271   0.0000   0.2805
  18.000   1.7868   0.17071   0.16672  -0.1448  0.0474  0.2500  -5.7737   0.0000   0.2828
  18.500   1.7745   0.17856   0.17468  -0.1513  0.0446  0.2500  -5.8207   0.0000   0.2852
  19.000   1.7662   0.18577   0.18202  -0.1576  0.0418  0.2500  -5.8827   0.0000   0.2872
  19.500   1.7570   0.19310   0.18945  -0.1644  0.0392  0.2500  -5.9342   0.0000   0.2896
  20.000   1.7506   0.19992   0.19637  -0.1709  0.0368  0.2500  -5.9964   0.0000   0.2917
  20.500   1.7457   0.20645   0.20300  -0.1773  0.0346  0.2500  -6.0627   0.0000   0.2937
  21.000   1.7393   0.21320   0.20984  -0.1843  0.0325  0.2500  -6.1143   0.0000   0.2960
  21.500   1.7371   0.21920   0.21594  -0.1906  0.0306  0.2500  -6.1950   0.0000   0.2977
  22.000   1.7324   0.22557   0.22239  -0.1975  0.0289  0.2500  -6.2600   0.0000   0.2999
  22.500   1.7326   0.23099   0.22791  -0.2036  0.0271  0.2500  -6.3565   0.0000   0.3013
  23.000   1.7306   0.23676   0.23376  -0.2102  0.0255  0.2500  -6.4327   0.0000   0.3031
  23.500   1.7301   0.24217   0.23926  -0.2166  0.0241  0.2500  -6.5177   0.0000   0.3046
  24.000   1.7276   0.24790   0.24505  -0.2235  0.0228  0.2500  -6.5819   0.0000   0.3066
  24.500   1.7294   0.25267   0.24992  -0.2294  0.0216  0.2500  -6.6806   0.0000   0.3076
  25.000   1.7279   0.25802   0.25534  -0.2362  0.0204  0.2500  -6.7465   0.0000   0.3093


