xflr5 v6.47

 Calculated polar for: NACA24018_theta30_Ku4.5_Kl0.5_d0.07_delta1.57

 1 1 Reynolds number fixed          Mach number fixed         

 xtrf =   0.250 (top)        0.250 (bottom)
 Mach =   0.000     Re =     3.000 e 6     Ncrit =   5.000

  alpha     CL        CD       CDp       Cm    Top Xtr Bot Xtr   Cpmin    Chinge    XCp    
 ------- -------- --------- --------- -------- ------- ------- -------- --------- ---------
 -15.000  -0.9373   0.01886   0.01229  -0.1169  0.2500  0.0229  -6.5136   0.0000   0.1007
 -14.500  -0.9079   0.01788   0.01128  -0.1140  0.2500  0.0237  -6.2304   0.0000   0.1007
 -14.000  -0.8775   0.01704   0.01040  -0.1109  0.2500  0.0244  -5.9472   0.0000   0.1006
 -13.500  -0.8462   0.01629   0.00962  -0.1077  0.2500  0.0251  -5.6650   0.0000   0.1004
 -13.000  -0.8144   0.01564   0.00893  -0.1044  0.2500  0.0255  -5.3854   0.0000   0.1002
 -12.500  -0.7846   0.01499   0.00825  -0.1005  0.2500  0.0266  -5.1181   0.0000   0.1009
 -12.000  -0.7552   0.01441   0.00765  -0.0964  0.2500  0.0277  -4.8613   0.0000   0.1021
 -11.500  -0.7268   0.01392   0.00713  -0.0918  0.2500  0.0286  -4.6164   0.0000   0.1041
 -11.000  -0.7039   0.01351   0.00670  -0.0859  0.2500  0.0292  -4.3982   0.0000   0.1090
 -10.500  -0.6780   0.01308   0.00625  -0.0806  0.2500  0.0304  -4.1785   0.0000   0.1129
 -10.000  -0.6399   0.01263   0.00580  -0.0775  0.2500  0.0319  -3.9299   0.0000   0.1111
  -9.500  -0.5965   0.01225   0.00539  -0.0753  0.2500  0.0333  -3.6726   0.0000   0.1061
  -9.000  -0.5503   0.01188   0.00501  -0.0737  0.2500  0.0349  -3.4149   0.0000   0.0987
  -8.500  -0.5019   0.01152   0.00466  -0.0724  0.2500  0.0373  -3.1579   0.0000   0.0883
  -8.000  -0.4515   0.01123   0.00436  -0.0714  0.2500  0.0391  -2.9035   0.0000   0.0743
  -7.500  -0.4005   0.01094   0.00408  -0.0704  0.2500  0.0421  -2.6551   0.0000   0.0561
  -7.000  -0.3481   0.01070   0.00384  -0.0698  0.2500  0.0449  -2.4196   0.0000   0.0310
  -6.500  -0.2947   0.01047   0.00362  -0.0693  0.2500  0.0484  -2.1918   0.0000  -0.0047
  -6.000  -0.2402   0.01027   0.00343  -0.0689  0.2500  0.0525  -1.9783   0.0000  -0.0584
  -5.500  -0.1849   0.01010   0.00327  -0.0688  0.2500  0.0563  -1.7714   0.0000  -0.1465
  -5.000  -0.1287   0.00992   0.00312  -0.0687  0.2500  0.0624  -1.5780   0.0000  -0.3147
  -4.500  -0.0719   0.00977   0.00300  -0.0688  0.2500  0.0697  -1.3924   0.0000  -0.7548
  -4.000  -0.0144   0.00964   0.00290  -0.0691  0.2500  0.0791  -1.2132   0.0000  -4.7498
  -3.500   0.0437   0.00952   0.00283  -0.0694  0.2500  0.0909  -1.0480   0.0000   1.8908
  -3.000   0.1023   0.00941   0.00277  -0.0699  0.2500  0.1050  -0.8953   0.0000   0.9498
  -2.500   0.1618   0.00930   0.00274  -0.0705  0.2500  0.1268  -0.8075   0.0000   0.6931
  -2.000   0.2232   0.00915   0.00271  -0.0716  0.2500  0.1649  -0.8714   0.0000   0.5737
  -1.500   0.2901   0.00888   0.00269  -0.0740  0.2500  0.2474  -0.9419   0.0000   0.5053
  -1.000   0.3483   0.00893   0.00274  -0.0743  0.2500  0.2500  -1.0082   0.0000   0.4617
  -0.500   0.4061   0.00900   0.00280  -0.0745  0.2500  0.2500  -1.0802   0.0000   0.4305
   0.000   0.4638   0.00907   0.00288  -0.0746  0.2500  0.2500  -1.1540   0.0000   0.4070
   0.500   0.5212   0.00916   0.00296  -0.0747  0.2500  0.2500  -1.2286   0.0000   0.3887
   1.000   0.5785   0.00925   0.00306  -0.0748  0.2500  0.2500  -1.3040   0.0000   0.3739
   1.500   0.6352   0.00937   0.00318  -0.0748  0.2479  0.2500  -1.3835   0.0000   0.3616
   2.000   0.6908   0.00955   0.00333  -0.0747  0.2405  0.2500  -1.4633   0.0000   0.3513
   2.500   0.7457   0.00974   0.00350  -0.0744  0.2328  0.2500  -1.5464   0.0000   0.3423
   3.000   0.8006   0.00993   0.00368  -0.0741  0.2265  0.2500  -1.6319   0.0000   0.3345
   3.500   0.8543   0.01017   0.00389  -0.0736  0.2182  0.2500  -1.7216   0.0000   0.3275
   4.000   0.9081   0.01038   0.00411  -0.0732  0.2133  0.2500  -1.8171   0.0000   0.3213
   4.500   0.9600   0.01065   0.00436  -0.0724  0.2068  0.2500  -1.9122   0.0000   0.3155
   5.000   1.0116   0.01091   0.00463  -0.0716  0.2006  0.2500  -2.0083   0.0000   0.3103
   5.500   1.0622   0.01123   0.00493  -0.0706  0.1935  0.2500  -2.1068   0.0000   0.3053
   6.000   1.1130   0.01154   0.00525  -0.0697  0.1872  0.2500  -2.2095   0.0000   0.3008
   6.500   1.1619   0.01192   0.00562  -0.0686  0.1793  0.2500  -2.3162   0.0000   0.2965
   7.000   1.2113   0.01227   0.00597  -0.0675  0.1737  0.2500  -2.4313   0.0000   0.2925
   7.500   1.2566   0.01274   0.00644  -0.0658  0.1654  0.2500  -2.5436   0.0000   0.2884
   8.000   1.3033   0.01316   0.00688  -0.0643  0.1606  0.2500  -2.6701   0.0000   0.2847
   8.500   1.3474   0.01370   0.00741  -0.0625  0.1525  0.2500  -2.7951   0.0000   0.2810
   9.000   1.3902   0.01427   0.00799  -0.0605  0.1456  0.2500  -2.9261   0.0000   0.2773
   9.500   1.4309   0.01492   0.00864  -0.0583  0.1376  0.2500  -3.0628   0.0000   0.2737
  10.000   1.4695   0.01567   0.00939  -0.0558  0.1296  0.2500  -3.2113   0.0000   0.2702
  10.500   1.5054   0.01654   0.01025  -0.0530  0.1213  0.2500  -3.3571   0.0000   0.2666
  11.000   1.5407   0.01745   0.01118  -0.0503  0.1142  0.2500  -3.5194   0.0000   0.2632
  11.500   1.5728   0.01854   0.01228  -0.0474  0.1070  0.2500  -3.6844   0.0000   0.2597
  12.000   1.6002   0.01991   0.01365  -0.0440  0.0980  0.2500  -3.8541   0.0000   0.2561
  12.500   1.6276   0.02136   0.01512  -0.0409  0.0913  0.2500  -4.0313   0.0000   0.2528
  13.000   1.6527   0.02300   0.01679  -0.0379  0.0849  0.2500  -4.2071   0.0000   0.2496
  13.500   1.6741   0.02497   0.01880  -0.0348  0.0787  0.2500  -4.3777   0.0000   0.2465
  14.000   1.6901   0.02742   0.02127  -0.0317  0.0717  0.2500  -4.5474   0.0000   0.2434
  14.500   1.7070   0.02998   0.02389  -0.0291  0.0667  0.2500  -4.7274   0.0000   0.2406
  15.000   1.7193   0.03308   0.02704  -0.0268  0.0619  0.2500  -4.8950   0.0000   0.2380
  15.500   1.7259   0.03684   0.03087  -0.0248  0.0570  0.2500  -5.0463   0.0000   0.2355
  16.000   1.7331   0.04083   0.03495  -0.0234  0.0534  0.2500  -5.1993   0.0000   0.2335
  16.500   1.7316   0.04590   0.04010  -0.0226  0.0497  0.2500  -5.3242   0.0000   0.2317
  17.000   1.7313   0.05114   0.04546  -0.0225  0.0472  0.2500  -5.4546   0.0000   0.2303
  17.500   1.7187   0.05797   0.05241  -0.0230  0.0441  0.2500  -5.5483   0.0000   0.2294
  18.000   1.7027   0.06549   0.06007  -0.0244  0.0415  0.2500  -5.6261   0.0000   0.2289
  18.500   1.6791   0.07424   0.06897  -0.0266  0.0393  0.2500  -5.6712   0.0000   0.2289
  19.000   1.6479   0.08418   0.07908  -0.0298  0.0372  0.2500  -5.6810   0.0000   0.2297
  19.500   1.6211   0.09388   0.08896  -0.0335  0.0361  0.2500  -5.7053   0.0000   0.2307
  20.000   1.5906   0.10422   0.09946  -0.0380  0.0347  0.2500  -5.7082   0.0000   0.2324
  20.500   1.5558   0.11535   0.11075  -0.0435  0.0330  0.2500  -5.6814   0.0000   0.2349
  21.000   1.5335   0.12486   0.12040  -0.0488  0.0316  0.2500  -5.7009   0.0000   0.2372
  21.500   1.5109   0.13458   0.13026  -0.0548  0.0302  0.2500  -5.7088   0.0000   0.2400
  22.000   1.4922   0.14374   0.13951  -0.0609  0.0284  0.2500  -5.7268   0.0000   0.2430
  22.500   1.4801   0.15203   0.14792  -0.0668  0.0273  0.2500  -5.7698   0.0000   0.2457
  23.000   1.4692   0.16019   0.15619  -0.0730  0.0260  0.2500  -5.8117   0.0000   0.2486
  23.500   1.4587   0.16832   0.16440  -0.0795  0.0245  0.2500  -5.8501   0.0000   0.2518
  24.000   1.4558   0.17519   0.17137  -0.0854  0.0236  0.2500  -5.9300   0.0000   0.2542
  24.500   1.4539   0.18190   0.17816  -0.0913  0.0225  0.2500  -6.0118   0.0000   0.2566
  25.000   1.4476   0.18936   0.18571  -0.0980  0.0213  0.2500  -6.0606   0.0000   0.2598


