xflr5 v6.47

 Calculated polar for: NACA24018_theta30_Ku4.5_Kl0.5_d0.07_delta1.57

 1 1 Reynolds number fixed          Mach number fixed         

 xtrf =   0.250 (top)        0.250 (bottom)
 Mach =   0.000     Re =     1.250 e 6     Ncrit =   5.000

  alpha     CL        CD       CDp       Cm    Top Xtr Bot Xtr   Cpmin    Chinge    XCp    
 ------- -------- --------- --------- -------- ------- ------- -------- --------- ---------
 -15.000  -0.8726   0.02406   0.01677  -0.1201  0.2500  0.0274  -6.2120   0.0000   0.0866
 -14.500  -0.8450   0.02270   0.01533  -0.1179  0.2500  0.0281  -5.9470   0.0000   0.0855
 -14.000  -0.8163   0.02150   0.01406  -0.1155  0.2500  0.0289  -5.6809   0.0000   0.0844
 -13.500  -0.7876   0.02042   0.01291  -0.1127  0.2500  0.0297  -5.4183   0.0000   0.0835
 -13.000  -0.7602   0.01938   0.01183  -0.1094  0.2500  0.0308  -5.1637   0.0000   0.0834
 -12.500  -0.7315   0.01850   0.01090  -0.1060  0.2500  0.0318  -4.9081   0.0000   0.0831
 -12.000  -0.7023   0.01773   0.01008  -0.1024  0.2500  0.0329  -4.6647   0.0000   0.0829
 -11.500  -0.6729   0.01706   0.00935  -0.0985  0.2500  0.0338  -4.4246   0.0000   0.0829
 -11.000  -0.6462   0.01637   0.00864  -0.0940  0.2500  0.0353  -4.2031   0.0000   0.0845
 -10.500  -0.6198   0.01581   0.00805  -0.0892  0.2500  0.0368  -3.9882   0.0000   0.0867
 -10.000  -0.5965   0.01534   0.00755  -0.0835  0.2500  0.0381  -3.7851   0.0000   0.0913
  -9.500  -0.5742   0.01486   0.00704  -0.0775  0.2500  0.0398  -3.5881   0.0000   0.0969
  -9.000  -0.5390   0.01438   0.00654  -0.0740  0.2500  0.0419  -3.3618   0.0000   0.0951
  -8.500  -0.4983   0.01396   0.00610  -0.0713  0.2500  0.0438  -3.1272   0.0000   0.0894
  -8.000  -0.4556   0.01352   0.00565  -0.0690  0.2500  0.0470  -2.8936   0.0000   0.0810
  -7.500  -0.4095   0.01317   0.00528  -0.0673  0.2500  0.0496  -2.6582   0.0000   0.0680
  -7.000  -0.3624   0.01280   0.00492  -0.0657  0.2500  0.0536  -2.4376   0.0000   0.0506
  -6.500  -0.3133   0.01252   0.00462  -0.0645  0.2500  0.0574  -2.2195   0.0000   0.0256
  -6.000  -0.2630   0.01224   0.00435  -0.0634  0.2500  0.0624  -2.0125   0.0000  -0.0109
  -5.500  -0.2115   0.01198   0.00411  -0.0626  0.2500  0.0689  -1.8125   0.0000  -0.0678
  -5.000  -0.1587   0.01175   0.00390  -0.0620  0.2500  0.0763  -1.6219   0.0000  -0.1659
  -4.500  -0.1050   0.01154   0.00373  -0.0616  0.2500  0.0868  -1.4405   0.0000  -0.3693
  -4.000  -0.0503   0.01135   0.00358  -0.0613  0.2500  0.1002  -1.2637   0.0000  -1.0262
  -3.500   0.0052   0.01117   0.00346  -0.0612  0.2500  0.1172  -1.1003   0.0000  12.4066
  -3.000   0.0620   0.01097   0.00336  -0.0614  0.2500  0.1460  -0.9453   0.0000   1.2703
  -2.500   0.1215   0.01065   0.00326  -0.0624  0.2500  0.2076  -0.8037   0.0000   0.7736
  -2.000   0.1811   0.01048   0.00321  -0.0632  0.2500  0.2500  -0.8435   0.0000   0.6027
  -1.500   0.2375   0.01054   0.00324  -0.0631  0.2500  0.2500  -0.9065   0.0000   0.5162
  -1.000   0.2937   0.01061   0.00328  -0.0630  0.2500  0.2500  -0.9702   0.0000   0.4629
  -0.500   0.3498   0.01069   0.00335  -0.0628  0.2500  0.2500  -1.0378   0.0000   0.4267
   0.000   0.4056   0.01078   0.00343  -0.0627  0.2500  0.2500  -1.1094   0.0000   0.4005
   0.500   0.4613   0.01088   0.00354  -0.0625  0.2500  0.2500  -1.1817   0.0000   0.3805
   1.000   0.5167   0.01100   0.00366  -0.0622  0.2500  0.2500  -1.2547   0.0000   0.3648
   1.500   0.5715   0.01113   0.00381  -0.0619  0.2500  0.2500  -1.3301   0.0000   0.3519
   2.000   0.6257   0.01127   0.00398  -0.0615  0.2500  0.2500  -1.4077   0.0000   0.3412
   2.500   0.6797   0.01143   0.00416  -0.0610  0.2500  0.2500  -1.4872   0.0000   0.3321
   3.000   0.7333   0.01161   0.00438  -0.0606  0.2500  0.2500  -1.5701   0.0000   0.3243
   3.500   0.7864   0.01181   0.00461  -0.0600  0.2489  0.2500  -1.6563   0.0000   0.3174
   4.000   0.8376   0.01210   0.00489  -0.0592  0.2414  0.2500  -1.7451   0.0000   0.3112
   4.500   0.8888   0.01239   0.00519  -0.0583  0.2345  0.2500  -1.8381   0.0000   0.3056
   5.000   0.9388   0.01272   0.00552  -0.0573  0.2275  0.2500  -1.9309   0.0000   0.3004
   5.500   0.9878   0.01306   0.00588  -0.0562  0.2214  0.2500  -2.0242   0.0000   0.2956
   6.000   1.0355   0.01346   0.00629  -0.0549  0.2150  0.2500  -2.1219   0.0000   0.2910
   6.500   1.0833   0.01385   0.00671  -0.0536  0.2084  0.2500  -2.2224   0.0000   0.2868
   7.000   1.1295   0.01432   0.00720  -0.0521  0.2016  0.2500  -2.3290   0.0000   0.2828
   7.500   1.1742   0.01482   0.00772  -0.0505  0.1947  0.2500  -2.4377   0.0000   0.2789
   8.000   1.2181   0.01537   0.00830  -0.0487  0.1887  0.2500  -2.5512   0.0000   0.2753
   8.500   1.2606   0.01597   0.00894  -0.0469  0.1815  0.2500  -2.6716   0.0000   0.2717
   9.000   1.3017   0.01664   0.00965  -0.0449  0.1750  0.2500  -2.7915   0.0000   0.2682
   9.500   1.3407   0.01740   0.01045  -0.0427  0.1686  0.2500  -2.9200   0.0000   0.2648
  10.000   1.3784   0.01825   0.01134  -0.0404  0.1615  0.2500  -3.0530   0.0000   0.2614
  10.500   1.4128   0.01928   0.01240  -0.0379  0.1544  0.2500  -3.1929   0.0000   0.2581
  11.000   1.4474   0.02033   0.01351  -0.0355  0.1474  0.2500  -3.3348   0.0000   0.2549
  11.500   1.4779   0.02165   0.01486  -0.0329  0.1404  0.2500  -3.4898   0.0000   0.2518
  12.000   1.5059   0.02316   0.01642  -0.0303  0.1325  0.2500  -3.6446   0.0000   0.2486
  12.500   1.5328   0.02482   0.01814  -0.0278  0.1255  0.2500  -3.8105   0.0000   0.2457
  13.000   1.5548   0.02689   0.02025  -0.0252  0.1185  0.2500  -3.9708   0.0000   0.2428
  13.500   1.5746   0.02922   0.02265  -0.0228  0.1113  0.2500  -4.1299   0.0000   0.2400
  14.000   1.5922   0.03186   0.02537  -0.0207  0.1049  0.2500  -4.2848   0.0000   0.2375
  14.500   1.6032   0.03518   0.02876  -0.0187  0.0981  0.2500  -4.4351   0.0000   0.2350
  15.000   1.6134   0.03879   0.03247  -0.0173  0.0921  0.2500  -4.5857   0.0000   0.2329
  15.500   1.6179   0.04316   0.03693  -0.0164  0.0867  0.2500  -4.7223   0.0000   0.2311
  16.000   1.6156   0.04844   0.04232  -0.0160  0.0810  0.2500  -4.8373   0.0000   0.2296
  16.500   1.6110   0.05427   0.04828  -0.0163  0.0763  0.2500  -4.9426   0.0000   0.2285
  17.000   1.5956   0.06159   0.05574  -0.0174  0.0716  0.2500  -5.0095   0.0000   0.2279
  17.500   1.5806   0.06919   0.06351  -0.0192  0.0682  0.2500  -5.0735   0.0000   0.2277
  18.000   1.5547   0.07840   0.07288  -0.0220  0.0646  0.2500  -5.0945   0.0000   0.2283
  18.500   1.5263   0.08823   0.08289  -0.0256  0.0616  0.2500  -5.1060   0.0000   0.2294
  19.000   1.4963   0.09850   0.09333  -0.0298  0.0585  0.2500  -5.1032   0.0000   0.2311
  19.500   1.4628   0.10947   0.10446  -0.0350  0.0554  0.2500  -5.0765   0.0000   0.2337
  20.000   1.4410   0.11898   0.11413  -0.0401  0.0529  0.2500  -5.0882   0.0000   0.2360
  20.500   1.4174   0.12889   0.12417  -0.0459  0.0500  0.2500  -5.0829   0.0000   0.2391
  21.000   1.4028   0.13759   0.13300  -0.0514  0.0475  0.2500  -5.1112   0.0000   0.2419
  21.500   1.3903   0.14602   0.14153  -0.0572  0.0446  0.2500  -5.1483   0.0000   0.2448
  22.000   1.3781   0.15450   0.15011  -0.0634  0.0419  0.2500  -5.1796   0.0000   0.2481
  22.500   1.3712   0.16220   0.15791  -0.0693  0.0394  0.2500  -5.2313   0.0000   0.2511
  23.000   1.3634   0.17008   0.16587  -0.0757  0.0370  0.2500  -5.2711   0.0000   0.2545
  23.500   1.3629   0.17674   0.17264  -0.0814  0.0350  0.2500  -5.3475   0.0000   0.2571
  24.000   1.3572   0.18429   0.18026  -0.0880  0.0328  0.2500  -5.3879   0.0000   0.2605
  24.500   1.3567   0.19098   0.18704  -0.0941  0.0310  0.2500  -5.4564   0.0000   0.2634
  25.000   1.3543   0.19802   0.19415  -0.1007  0.0291  0.2500  -5.5104   0.0000   0.2667


