xflr5 v6.47

 Calculated polar for: NACA24018_theta30_Ku4.5_Kl0.5_d0.31_delta11.03

 1 1 Reynolds number fixed          Mach number fixed         

 xtrf =   0.250 (top)        0.250 (bottom)
 Mach =   0.000     Re =     0.800 e 6     Ncrit =   5.000

  alpha     CL        CD       CDp       Cm    Top Xtr Bot Xtr   Cpmin    Chinge    XCp    
 ------- -------- --------- --------- -------- ------- ------- -------- --------- ---------
 -15.000  -0.3096   0.04553   0.03928  -0.1380  0.2500  0.0479  -3.9619   0.0000  -0.2418
 -14.500  -0.2352   0.04575   0.03943  -0.1432  0.2500  0.0501  -3.6102   0.0000  -0.4147
 -14.000  -0.1628   0.04618   0.03981  -0.1477  0.2500  0.0531  -3.2726   0.0000  -0.7314
 -13.500  -0.0880   0.04683   0.04040  -0.1524  0.2500  0.0562  -2.9565   0.0000  -1.6077
 -13.000  -0.0150   0.04762   0.04113  -0.1565  0.2500  0.0598  -2.6666   0.0000  -10.8841
 -12.500   0.0582   0.04855   0.04204  -0.1606  0.2500  0.0645  -2.3844   0.0000   3.1657
 -12.000   0.1318   0.04962   0.04308  -0.1646  0.2500  0.0698  -2.1113   0.0000   1.5612
 -11.500   0.2052   0.05080   0.04425  -0.1685  0.2500  0.0762  -1.8606   0.0000   1.1065
 -11.000   0.2776   0.05209   0.04552  -0.1720  0.2500  0.0838  -1.6211   0.0000   0.8928
 -10.500   0.3492   0.05345   0.04688  -0.1754  0.2500  0.0932  -1.3957   0.0000   0.7681
 -10.000   0.4229   0.05500   0.04843  -0.1791  0.2500  0.1055  -1.1855   0.0000   0.6843
  -9.500   0.4966   0.05665   0.05010  -0.1827  0.2500  0.1219  -0.9911   0.0000   0.6253
  -9.000   0.5726   0.05851   0.05200  -0.1866  0.2500  0.1456  -0.8988   0.0000   0.5808
  -8.500   0.6565   0.06086   0.05444  -0.1918  0.2500  0.1853  -0.9268   0.0000   0.5450
  -8.000   0.7523   0.06400   0.05770  -0.1989  0.2500  0.2500  -1.0111   0.0000   0.5155
  -7.500   0.8072   0.06520   0.05884  -0.1990  0.2500  0.2500  -1.0756   0.0000   0.4963
  -7.000   0.8614   0.06638   0.05999  -0.1989  0.2500  0.2500  -1.1425   0.0000   0.4796
  -6.500   0.9150   0.06756   0.06114  -0.1987  0.2500  0.2500  -1.2140   0.0000   0.4649
  -6.000   0.9680   0.06873   0.06229  -0.1984  0.2500  0.2500  -1.2858   0.0000   0.4517
  -5.500   1.0202   0.06990   0.06345  -0.1980  0.2500  0.2500  -1.3580   0.0000   0.4399
  -5.000   1.0717   0.07105   0.06460  -0.1975  0.2500  0.2500  -1.4303   0.0000   0.4292
  -4.500   1.1223   0.07220   0.06574  -0.1968  0.2500  0.2500  -1.5079   0.0000   0.4195
  -4.000   1.1723   0.07333   0.06689  -0.1960  0.2500  0.2500  -1.5878   0.0000   0.4105
  -3.500   1.2217   0.07447   0.06805  -0.1951  0.2500  0.2500  -1.6699   0.0000   0.4023
  -3.000   1.2705   0.07562   0.06923  -0.1941  0.2500  0.2500  -1.7544   0.0000   0.3946
  -2.500   1.3185   0.07678   0.07042  -0.1930  0.2500  0.2500  -1.8390   0.0000   0.3874
  -2.000   1.3655   0.07797   0.07166  -0.1918  0.2500  0.2500  -1.9256   0.0000   0.3807
  -1.500   1.4118   0.07918   0.07292  -0.1905  0.2500  0.2500  -2.0184   0.0000   0.3744
  -1.000   1.4572   0.08037   0.07416  -0.1890  0.2500  0.2500  -2.1113   0.0000   0.3684
  -0.500   1.5019   0.08153   0.07539  -0.1874  0.2500  0.2500  -2.2064   0.0000   0.3627
   0.000   1.5454   0.08272   0.07662  -0.1858  0.2461  0.2500  -2.3035   0.0000   0.3573
   0.500   1.5871   0.08396   0.07786  -0.1839  0.2384  0.2500  -2.4006   0.0000   0.3521
   1.000   1.6286   0.08519   0.07911  -0.1819  0.2309  0.2500  -2.5064   0.0000   0.3472
   1.500   1.6682   0.08650   0.08043  -0.1798  0.2230  0.2500  -2.6112   0.0000   0.3424
   2.000   1.7074   0.08781   0.08177  -0.1777  0.2153  0.2500  -2.7238   0.0000   0.3378
   2.500   1.7435   0.08933   0.08330  -0.1752  0.2082  0.2500  -2.8351   0.0000   0.3334
   3.000   1.7799   0.09080   0.08482  -0.1728  0.2007  0.2500  -2.9519   0.0000   0.3290
   3.500   1.8142   0.09235   0.08640  -0.1703  0.1936  0.2500  -3.0777   0.0000   0.3248
   4.000   1.8484   0.09384   0.08793  -0.1677  0.1860  0.2500  -3.2049   0.0000   0.3208
   4.500   1.8794   0.09556   0.08968  -0.1649  0.1783  0.2500  -3.3452   0.0000   0.3168
   5.000   1.9084   0.09741   0.09158  -0.1620  0.1707  0.2500  -3.4880   0.0000   0.3129
   5.500   1.9370   0.09923   0.09345  -0.1591  0.1630  0.2500  -3.6464   0.0000   0.3091
   6.000   1.9614   0.10136   0.09561  -0.1560  0.1546  0.2500  -3.8013   0.0000   0.3054
   6.500   1.9863   0.10346   0.09778  -0.1531  0.1475  0.2500  -3.9730   0.0000   0.3017
   7.000   2.0076   0.10580   0.10017  -0.1500  0.1394  0.2500  -4.1384   0.0000   0.2982
   7.500   2.0249   0.10850   0.10291  -0.1469  0.1310  0.2500  -4.3047   0.0000   0.2948
   8.000   2.0422   0.11124   0.10572  -0.1440  0.1232  0.2500  -4.4811   0.0000   0.2915
   8.500   2.0560   0.11424   0.10880  -0.1412  0.1160  0.2500  -4.6499   0.0000   0.2883
   9.000   2.0657   0.11762   0.11225  -0.1385  0.1089  0.2500  -4.8167   0.0000   0.2853
   9.500   2.0730   0.12125   0.11595  -0.1362  0.1014  0.2500  -4.9855   0.0000   0.2825
  10.000   2.0782   0.12509   0.11990  -0.1344  0.0945  0.2500  -5.1478   0.0000   0.2799
  10.500   2.0802   0.12925   0.12415  -0.1330  0.0882  0.2500  -5.2990   0.0000   0.2776
  11.000   2.0775   0.13391   0.12892  -0.1323  0.0823  0.2500  -5.4334   0.0000   0.2757
  11.500   2.0745   0.13864   0.13377  -0.1322  0.0764  0.2500  -5.5644   0.0000   0.2740
  12.000   2.0686   0.14369   0.13894  -0.1329  0.0710  0.2500  -5.6834   0.0000   0.2727
  12.500   2.0589   0.14920   0.14459  -0.1346  0.0661  0.2500  -5.7880   0.0000   0.2720
  13.000   2.0465   0.15505   0.15057  -0.1371  0.0615  0.2500  -5.8810   0.0000   0.2716
  13.500   2.0354   0.16078   0.15645  -0.1402  0.0575  0.2500  -5.9752   0.0000   0.2715
  14.000   2.0201   0.16703   0.16286  -0.1443  0.0540  0.2500  -6.0460   0.0000   0.2720
  14.500   2.0046   0.17333   0.16930  -0.1490  0.0505  0.2500  -6.1178   0.0000   0.2727
  15.000   1.9896   0.17958   0.17571  -0.1540  0.0475  0.2500  -6.1864   0.0000   0.2736
  15.500   1.9727   0.18610   0.18237  -0.1597  0.0446  0.2500  -6.2391   0.0000   0.2750
  16.000   1.9597   0.19209   0.18850  -0.1652  0.0420  0.2500  -6.3066   0.0000   0.2760
  16.500   1.9449   0.19832   0.19485  -0.1713  0.0395  0.2500  -6.3582   0.0000   0.2775
  17.000   1.9344   0.20390   0.20055  -0.1769  0.0369  0.2500  -6.4298   0.0000   0.2786
  17.500   1.9227   0.20961   0.20637  -0.1829  0.0347  0.2500  -6.4894   0.0000   0.2799
  18.000   1.9130   0.21498   0.21185  -0.1888  0.0325  0.2500  -6.5563   0.0000   0.2811
  18.500   1.9041   0.22018   0.21715  -0.1947  0.0305  0.2500  -6.6231   0.0000   0.2822
  19.000   1.8956   0.22525   0.22232  -0.2006  0.0285  0.2500  -6.6888   0.0000   0.2834
  19.500   1.8895   0.22986   0.22702  -0.2062  0.0268  0.2500  -6.7679   0.0000   0.2842
  20.000   1.8824   0.23456   0.23182  -0.2121  0.0252  0.2500  -6.8354   0.0000   0.2852
  20.500   1.8758   0.23911   0.23646  -0.2179  0.0237  0.2500  -6.9026   0.0000   0.2862


