xflr5 v6.47

 Calculated polar for: NACA24018_theta30_Ku4.5_Kl0.5_d0.24_delta7.31

 1 1 Reynolds number fixed          Mach number fixed         

 xtrf =   0.250 (top)        0.250 (bottom)
 Mach =   0.000     Re =     3.500 e 6     Ncrit =   5.000

  alpha     CL        CD       CDp       Cm    Top Xtr Bot Xtr   Cpmin    Chinge    XCp    
 ------- -------- --------- --------- -------- ------- ------- -------- --------- ---------
 -15.000  -0.5493   0.02702   0.02137  -0.1435  0.2500  0.0307  -4.9859   0.0000  -0.0433
 -14.500  -0.4806   0.02694   0.02127  -0.1470  0.2500  0.0320  -4.6136   0.0000  -0.0898
 -14.000  -0.4105   0.02696   0.02125  -0.1506  0.2500  0.0333  -4.2522   0.0000  -0.1537
 -13.500  -0.3389   0.02706   0.02134  -0.1543  0.2500  0.0354  -3.8970   0.0000  -0.2469
 -13.000  -0.2693   0.02724   0.02150  -0.1576  0.2500  0.0368  -3.5586   0.0000  -0.3833
 -12.500  -0.1974   0.02750   0.02175  -0.1612  0.2500  0.0394  -3.2357   0.0000  -0.6274
 -12.000  -0.1264   0.02782   0.02206  -0.1645  0.2500  0.0415  -2.9287   0.0000  -1.1396
 -11.500  -0.0550   0.02821   0.02244  -0.1679  0.2500  0.0441  -2.6408   0.0000  -2.9883
 -11.000   0.0157   0.02863   0.02286  -0.1710  0.2500  0.0474  -2.3677   0.0000  11.7368
 -10.500   0.0860   0.02911   0.02333  -0.1741  0.2500  0.0511  -2.1054   0.0000   2.3759
 -10.000   0.1562   0.02964   0.02386  -0.1770  0.2500  0.0556  -1.8579   0.0000   1.4337
  -9.500   0.2264   0.03021   0.02443  -0.1799  0.2500  0.0603  -1.6279   0.0000   1.0765
  -9.000   0.2961   0.03081   0.02505  -0.1827  0.2500  0.0659  -1.4165   0.0000   0.8889
  -8.500   0.3665   0.03148   0.02573  -0.1856  0.2500  0.0746  -1.2122   0.0000   0.7721
  -8.000   0.4354   0.03216   0.02643  -0.1881  0.2500  0.0834  -1.0212   0.0000   0.6937
  -7.500   0.5041   0.03286   0.02717  -0.1906  0.2500  0.0946  -0.8770   0.0000   0.6368
  -7.000   0.5748   0.03365   0.02799  -0.1934  0.2500  0.1106  -0.8997   0.0000   0.5929
  -6.500   0.6468   0.03451   0.02891  -0.1965  0.2500  0.1326  -0.9749   0.0000   0.5583
  -6.000   0.7236   0.03554   0.03002  -0.2004  0.2500  0.1702  -1.0547   0.0000   0.5299
  -5.500   0.8076   0.03681   0.03143  -0.2055  0.2500  0.2311  -1.1418   0.0000   0.5061
  -5.000   0.8720   0.03765   0.03229  -0.2070  0.2500  0.2500  -1.2220   0.0000   0.4880
  -4.500   0.9276   0.03827   0.03290  -0.2069  0.2500  0.2500  -1.2963   0.0000   0.4726
  -4.000   0.9830   0.03889   0.03352  -0.2068  0.2500  0.2500  -1.3714   0.0000   0.4590
  -3.500   1.0382   0.03951   0.03413  -0.2066  0.2500  0.2500  -1.4488   0.0000   0.4468
  -3.000   1.0931   0.04012   0.03474  -0.2063  0.2500  0.2500  -1.5288   0.0000   0.4357
  -2.500   1.1476   0.04073   0.03536  -0.2060  0.2500  0.2500  -1.6095   0.0000   0.4257
  -2.000   1.2012   0.04133   0.03594  -0.2055  0.2446  0.2500  -1.6977   0.0000   0.4165
  -1.500   1.2537   0.04192   0.03649  -0.2048  0.2359  0.2500  -1.7861   0.0000   0.4080
  -1.000   1.3060   0.04253   0.03708  -0.2040  0.2297  0.2500  -1.8758   0.0000   0.4002
  -0.500   1.3573   0.04314   0.03765  -0.2031  0.2213  0.2500  -1.9693   0.0000   0.3929
   0.000   1.4083   0.04378   0.03826  -0.2022  0.2139  0.2500  -2.0652   0.0000   0.3860
   0.500   1.4581   0.04442   0.03886  -0.2010  0.2047  0.2500  -2.1634   0.0000   0.3796
   1.000   1.5080   0.04508   0.03952  -0.1999  0.2003  0.2500  -2.2693   0.0000   0.3735
   1.500   1.5568   0.04576   0.04019  -0.1986  0.1942  0.2500  -2.3777   0.0000   0.3678
   2.000   1.6048   0.04648   0.04089  -0.1971  0.1873  0.2500  -2.4865   0.0000   0.3623
   2.500   1.6512   0.04726   0.04163  -0.1955  0.1776  0.2500  -2.5947   0.0000   0.3571
   3.000   1.6976   0.04805   0.04242  -0.1938  0.1713  0.2500  -2.7062   0.0000   0.3520
   3.500   1.7419   0.04895   0.04328  -0.1918  0.1626  0.2500  -2.8282   0.0000   0.3472
   4.000   1.7841   0.04998   0.04431  -0.1895  0.1556  0.2500  -2.9579   0.0000   0.3425
   4.500   1.8253   0.05106   0.04538  -0.1871  0.1483  0.2500  -3.0887   0.0000   0.3379
   5.000   1.8647   0.05221   0.04650  -0.1844  0.1391  0.2500  -3.2278   0.0000   0.3334
   5.500   1.9029   0.05341   0.04768  -0.1816  0.1302  0.2500  -3.3687   0.0000   0.3291
   6.000   1.9395   0.05472   0.04897  -0.1787  0.1211  0.2500  -3.5219   0.0000   0.3248
   6.500   1.9737   0.05621   0.05046  -0.1754  0.1138  0.2500  -3.6954   0.0000   0.3206
   7.000   2.0043   0.05794   0.05219  -0.1717  0.1056  0.2500  -3.8670   0.0000   0.3164
   7.500   2.0331   0.05978   0.05401  -0.1678  0.0959  0.2500  -4.0430   0.0000   0.3123
   8.000   2.0597   0.06185   0.05609  -0.1638  0.0890  0.2500  -4.2297   0.0000   0.3083
   8.500   2.0821   0.06425   0.05848  -0.1594  0.0802  0.2500  -4.4178   0.0000   0.3042
   9.000   2.1000   0.06702   0.06125  -0.1547  0.0718  0.2500  -4.6083   0.0000   0.3002
   9.500   2.1197   0.06971   0.06396  -0.1504  0.0660  0.2500  -4.8059   0.0000   0.2963
  10.000   2.1345   0.07288   0.06719  -0.1459  0.0610  0.2500  -4.9930   0.0000   0.2925
  10.500   2.1468   0.07635   0.07070  -0.1414  0.0563  0.2500  -5.1752   0.0000   0.2888
  11.000   2.1551   0.08023   0.07464  -0.1370  0.0513  0.2500  -5.3544   0.0000   0.2853
  11.500   2.1579   0.08478   0.07924  -0.1328  0.0466  0.2500  -5.5294   0.0000   0.2819
  12.000   2.1598   0.08955   0.08410  -0.1292  0.0426  0.2500  -5.7013   0.0000   0.2788
  12.500   2.1605   0.09453   0.08917  -0.1263  0.0391  0.2500  -5.8688   0.0000   0.2760
  13.000   2.1580   0.09992   0.09466  -0.1240  0.0364  0.2500  -6.0243   0.0000   0.2735
  13.500   2.1523   0.10570   0.10055  -0.1225  0.0341  0.2500  -6.1661   0.0000   0.2714
  14.000   2.1481   0.11137   0.10633  -0.1218  0.0323  0.2500  -6.3109   0.0000   0.2696
  14.500   2.1370   0.11789   0.11297  -0.1220  0.0301  0.2500  -6.4264   0.0000   0.2683
  15.000   2.1283   0.12418   0.11939  -0.1230  0.0284  0.2500  -6.5468   0.0000   0.2673
  15.500   2.1131   0.13131   0.12666  -0.1252  0.0266  0.2500  -6.6362   0.0000   0.2670
  16.000   2.1016   0.13797   0.13346  -0.1277  0.0255  0.2500  -6.7486   0.0000   0.2667
  16.500   2.0850   0.14534   0.14097  -0.1314  0.0243  0.2500  -6.8352   0.0000   0.2670
  17.000   2.0684   0.15276   0.14853  -0.1357  0.0232  0.2500  -6.9152   0.0000   0.2677
  17.500   2.0504   0.16039   0.15630  -0.1408  0.0222  0.2500  -6.9822   0.0000   0.2687
  18.000   2.0294   0.16845   0.16450  -0.1467  0.0210  0.2500  -7.0263   0.0000   0.2703
  18.500   2.0145   0.17563   0.17182  -0.1524  0.0202  0.2500  -7.0958   0.0000   0.2716
  19.000   2.0000   0.18273   0.17903  -0.1583  0.0192  0.2500  -7.1621   0.0000   0.2730
  19.500   1.9798   0.19067   0.18710  -0.1655  0.0181  0.2500  -7.1887   0.0000   0.2752
  20.000   1.9680   0.19731   0.19385  -0.1717  0.0173  0.2500  -7.2579   0.0000   0.2767
  20.500   1.9558   0.20397   0.20062  -0.1782  0.0165  0.2500  -7.3193   0.0000   0.2784
  21.000   1.9445   0.21043   0.20718  -0.1848  0.0157  0.2500  -7.3809   0.0000   0.2800
  21.500   1.9392   0.21585   0.21269  -0.1904  0.0150  0.2500  -7.4784   0.0000   0.2810
  22.000   1.9304   0.22178   0.21871  -0.1969  0.0143  0.2500  -7.5482   0.0000   0.2825
  22.500   1.9203   0.22789   0.22491  -0.2038  0.0135  0.2500  -7.6025   0.0000   0.2842
  23.000   1.9129   0.23346   0.23058  -0.2103  0.0129  0.2500  -7.6815   0.0000   0.2857
  23.500   1.9048   0.23910   0.23631  -0.2170  0.0123  0.2500  -7.7528   0.0000   0.2873
  24.000   1.8997   0.24412   0.24140  -0.2232  0.0116  0.2500  -7.8454   0.0000   0.2884
  24.500   1.8944   0.24910   0.24646  -0.2295  0.0112  0.2500  -7.9327   0.0000   0.2896
  25.000   1.8873   0.25433   0.25178  -0.2363  0.0107  0.2500  -8.0000   0.0000   0.2911


