xflr5 v6.47

 Calculated polar for: NACA24018_theta30_Ku4.5_Kl0.5_d0.24_delta7.31

 1 1 Reynolds number fixed          Mach number fixed         

 xtrf =   0.250 (top)        0.250 (bottom)
 Mach =   0.000     Re =     0.900 e 6     Ncrit =   5.000

  alpha     CL        CD       CDp       Cm    Top Xtr Bot Xtr   Cpmin    Chinge    XCp    
 ------- -------- --------- --------- -------- ------- ------- -------- --------- ---------
 -15.000  -0.6702   0.03259   0.02589  -0.1134  0.2500  0.0372  -5.2860   0.0000   0.0541
 -14.500  -0.6143   0.03154   0.02478  -0.1163  0.2500  0.0387  -4.9463   0.0000   0.0337
 -14.000  -0.5534   0.03080   0.02394  -0.1194  0.2500  0.0402  -4.6116   0.0000   0.0065
 -13.500  -0.4878   0.03019   0.02329  -0.1232  0.2500  0.0421  -4.2711   0.0000  -0.0316
 -13.000  -0.4212   0.02983   0.02286  -0.1266  0.2500  0.0444  -3.9357   0.0000  -0.0818
 -12.500  -0.3514   0.02959   0.02257  -0.1306  0.2500  0.0467  -3.6011   0.0000  -0.1561
 -12.000  -0.2823   0.02952   0.02245  -0.1341  0.2500  0.0494  -3.2872   0.0000  -0.2647
 -11.500  -0.2103   0.02955   0.02245  -0.1381  0.2500  0.0529  -2.9796   0.0000  -0.4554
 -11.000  -0.1387   0.02969   0.02256  -0.1418  0.2500  0.0565  -2.6887   0.0000  -0.8403
 -10.500  -0.0671   0.02994   0.02278  -0.1454  0.2500  0.0611  -2.4149   0.0000  -2.0436
 -10.000   0.0047   0.03027   0.02309  -0.1489  0.2500  0.0661  -2.1502   0.0000  33.9362
  -9.500   0.0772   0.03069   0.02349  -0.1525  0.2500  0.0725  -1.8984   0.0000   2.3170
  -9.000   0.1503   0.03119   0.02400  -0.1562  0.2500  0.0809  -1.6614   0.0000   1.3315
  -8.500   0.2228   0.03175   0.02457  -0.1596  0.2500  0.0909  -1.4447   0.0000   0.9918
  -8.000   0.2957   0.03239   0.02522  -0.1631  0.2500  0.1037  -1.2363   0.0000   0.8184
  -7.500   0.3705   0.03314   0.02601  -0.1669  0.2500  0.1222  -1.0366   0.0000   0.7119
  -7.000   0.4485   0.03402   0.02696  -0.1712  0.2500  0.1508  -0.8559   0.0000   0.6397
  -6.500   0.5387   0.03527   0.02837  -0.1778  0.2500  0.2122  -0.8987   0.0000   0.5853
  -6.000   0.6159   0.03633   0.02949  -0.1819  0.2500  0.2500  -0.9772   0.0000   0.5486
  -5.500   0.6748   0.03697   0.03009  -0.1824  0.2500  0.2500  -1.0439   0.0000   0.5223
  -5.000   0.7330   0.03763   0.03071  -0.1829  0.2500  0.2500  -1.1120   0.0000   0.5001
  -4.500   0.7905   0.03829   0.03134  -0.1831  0.2500  0.2500  -1.1852   0.0000   0.4813
  -4.000   0.8473   0.03896   0.03200  -0.1833  0.2500  0.2500  -1.2594   0.0000   0.4649
  -3.500   0.9034   0.03964   0.03267  -0.1833  0.2500  0.2500  -1.3340   0.0000   0.4506
  -3.000   0.9590   0.04033   0.03336  -0.1833  0.2500  0.2500  -1.4109   0.0000   0.4379
  -2.500   1.0139   0.04104   0.03407  -0.1831  0.2500  0.2500  -1.4898   0.0000   0.4266
  -2.000   1.0683   0.04176   0.03481  -0.1828  0.2500  0.2500  -1.5703   0.0000   0.4164
  -1.500   1.1221   0.04249   0.03556  -0.1824  0.2500  0.2500  -1.6567   0.0000   0.4070
  -1.000   1.1751   0.04323   0.03634  -0.1819  0.2500  0.2500  -1.7443   0.0000   0.3985
  -0.500   1.2271   0.04402   0.03717  -0.1812  0.2500  0.2500  -1.8328   0.0000   0.3907
   0.000   1.2783   0.04485   0.03805  -0.1803  0.2500  0.2500  -1.9246   0.0000   0.3834
   0.500   1.3286   0.04571   0.03896  -0.1794  0.2500  0.2500  -2.0184   0.0000   0.3766
   1.000   1.3780   0.04659   0.03990  -0.1783  0.2496  0.2500  -2.1146   0.0000   0.3702
   1.500   1.4260   0.04751   0.04084  -0.1770  0.2424  0.2500  -2.2165   0.0000   0.3642
   2.000   1.4724   0.04848   0.04181  -0.1755  0.2345  0.2500  -2.3206   0.0000   0.3584
   2.500   1.5185   0.04947   0.04282  -0.1739  0.2268  0.2500  -2.4254   0.0000   0.3530
   3.000   1.5626   0.05055   0.04391  -0.1721  0.2191  0.2500  -2.5293   0.0000   0.3478
   3.500   1.6065   0.05167   0.04507  -0.1702  0.2133  0.2500  -2.6381   0.0000   0.3429
   4.000   1.6473   0.05298   0.04641  -0.1680  0.2057  0.2500  -2.7536   0.0000   0.3380
   4.500   1.6874   0.05433   0.04780  -0.1657  0.1985  0.2500  -2.8768   0.0000   0.3334
   5.000   1.7255   0.05577   0.04927  -0.1632  0.1908  0.2500  -3.0011   0.0000   0.3289
   5.500   1.7637   0.05723   0.05078  -0.1607  0.1836  0.2500  -3.1350   0.0000   0.3245
   6.000   1.7969   0.05905   0.05263  -0.1576  0.1760  0.2500  -3.2650   0.0000   0.3202
   6.500   1.8310   0.06081   0.05446  -0.1548  0.1690  0.2500  -3.4095   0.0000   0.3160
   7.000   1.8619   0.06279   0.05649  -0.1516  0.1617  0.2500  -3.5668   0.0000   0.3120
   7.500   1.8889   0.06510   0.05885  -0.1481  0.1532  0.2500  -3.7271   0.0000   0.3079
   8.000   1.9156   0.06742   0.06124  -0.1448  0.1456  0.2500  -3.8892   0.0000   0.3040
   8.500   1.9370   0.07021   0.06409  -0.1410  0.1378  0.2500  -4.0572   0.0000   0.3002
   9.000   1.9557   0.07329   0.06724  -0.1373  0.1302  0.2500  -4.2229   0.0000   0.2964
   9.500   1.9736   0.07650   0.07054  -0.1338  0.1234  0.2500  -4.4015   0.0000   0.2928
  10.000   1.9857   0.08029   0.07441  -0.1302  0.1156  0.2500  -4.5713   0.0000   0.2894
  10.500   1.9931   0.08463   0.07884  -0.1269  0.1078  0.2500  -4.7288   0.0000   0.2862
  11.000   1.9991   0.08922   0.08353  -0.1241  0.1012  0.2500  -4.8827   0.0000   0.2833
  11.500   2.0028   0.09412   0.08855  -0.1218  0.0947  0.2500  -5.0291   0.0000   0.2806
  12.000   2.0017   0.09962   0.09417  -0.1201  0.0883  0.2500  -5.1603   0.0000   0.2784
  12.500   1.9966   0.10562   0.10029  -0.1192  0.0821  0.2500  -5.2913   0.0000   0.2766
  13.000   1.9885   0.11208   0.10688  -0.1193  0.0765  0.2500  -5.4085   0.0000   0.2752
  13.500   1.9814   0.11852   0.11347  -0.1202  0.0718  0.2500  -5.5247   0.0000   0.2743
  14.000   1.9703   0.12551   0.12061  -0.1221  0.0677  0.2500  -5.6218   0.0000   0.2739
  14.500   1.9562   0.13293   0.12819  -0.1250  0.0636  0.2500  -5.7015   0.0000   0.2741
  15.000   1.9422   0.14038   0.13581  -0.1286  0.0600  0.2500  -5.7758   0.0000   0.2746
  15.500   1.9234   0.14856   0.14415  -0.1334  0.0565  0.2500  -5.8223   0.0000   0.2759
  16.000   1.9064   0.15652   0.15227  -0.1387  0.0529  0.2500  -5.8697   0.0000   0.2774
  16.500   1.8886   0.16465   0.16055  -0.1446  0.0498  0.2500  -5.9054   0.0000   0.2792
  17.000   1.8710   0.17276   0.16880  -0.1511  0.0468  0.2500  -5.9344   0.0000   0.2814
  17.500   1.8589   0.18008   0.17625  -0.1572  0.0440  0.2500  -5.9874   0.0000   0.2832
  18.000   1.8457   0.18750   0.18380  -0.1638  0.0413  0.2500  -6.0344   0.0000   0.2854
  18.500   1.8359   0.19437   0.19078  -0.1701  0.0387  0.2500  -6.0961   0.0000   0.2872
  19.000   1.8270   0.20108   0.19760  -0.1765  0.0364  0.2500  -6.1602   0.0000   0.2892
  19.500   1.8189   0.20762   0.20424  -0.1831  0.0343  0.2500  -6.2243   0.0000   0.2911
  20.000   1.8135   0.21370   0.21043  -0.1894  0.0325  0.2500  -6.2998   0.0000   0.2927
  20.500   1.8076   0.21980   0.21662  -0.1959  0.0305  0.2500  -6.3679   0.0000   0.2945
  21.000   1.8046   0.22532   0.22224  -0.2019  0.0288  0.2500  -6.4523   0.0000   0.2959
  21.500   1.7996   0.23111   0.22810  -0.2085  0.0270  0.2500  -6.5191   0.0000   0.2976
  22.000   1.7967   0.23648   0.23357  -0.2148  0.0253  0.2500  -6.5963   0.0000   0.2990
  22.500   1.7920   0.24209   0.23926  -0.2216  0.0238  0.2500  -6.6557   0.0000   0.3008
  23.000   1.7920   0.24675   0.24402  -0.2273  0.0226  0.2500  -6.7490   0.0000   0.3017
  23.500   1.7890   0.25186   0.24920  -0.2337  0.0213  0.2500  -6.8161   0.0000   0.3031
  24.000   1.7865   0.25680   0.25423  -0.2401  0.0202  0.2500  -6.8952   0.0000   0.3045
  24.500   1.7856   0.26133   0.25884  -0.2461  0.0190  0.2500  -6.9870   0.0000   0.3055
  25.000   1.7828   0.26616   0.26373  -0.2527  0.0179  0.2500  -7.0569   0.0000   0.3068


