xflr5 v6.47

 Calculated polar for: NACA 23015

 1 1 Reynolds number fixed          Mach number fixed         

 xtrf =   1.000 (top)        1.000 (bottom)
 Mach =   0.000     Re =     1.000 e 6     Ncrit =   0.100

  alpha     CL        CD       CDp       Cm    Top Xtr Bot Xtr   Cpmin    Chinge    XCp    
 ------- -------- --------- --------- -------- ------- ------- -------- --------- ---------
 -10.000  -0.9224   0.01831   0.00990  -0.0226  0.0468  0.0095  -6.0987   0.0000   0.2132
  -9.800  -0.9042   0.01801   0.00956  -0.0220  0.0469  0.0095  -5.9371   0.0000   0.2136
  -9.600  -0.8857   0.01772   0.00922  -0.0214  0.0469  0.0094  -5.7762   0.0000   0.2140
  -9.400  -0.8670   0.01743   0.00890  -0.0208  0.0470  0.0094  -5.6161   0.0000   0.2143
  -9.200  -0.8482   0.01716   0.00859  -0.0202  0.0413  0.0070  -5.4570   0.0000   0.2146
  -9.000  -0.8292   0.01689   0.00829  -0.0197  0.0414  0.0070  -5.2988   0.0000   0.2149
  -8.800  -0.8099   0.01664   0.00800  -0.0191  0.0414  0.0070  -5.1418   0.0000   0.2152
  -8.600  -0.7906   0.01639   0.00772  -0.0186  0.0415  0.0070  -4.9859   0.0000   0.2154
  -8.400  -0.7710   0.01615   0.00745  -0.0181  0.0415  0.0070  -4.8312   0.0000   0.2156
  -8.200  -0.7514   0.01592   0.00719  -0.0177  0.0362  0.0050  -4.6778   0.0000   0.2158
  -8.000  -0.7315   0.01570   0.00694  -0.0172  0.0362  0.0049  -4.5258   0.0000   0.2159
  -7.800  -0.7116   0.01549   0.00669  -0.0168  0.0363  0.0049  -4.3752   0.0000   0.2160
  -7.600  -0.6915   0.01529   0.00646  -0.0164  0.0363  0.0049  -4.2352   0.0000   0.2161
  -7.400  -0.6713   0.01509   0.00624  -0.0160  0.0364  0.0049  -4.0968   0.0000   0.2161
  -7.200  -0.6510   0.01490   0.00602  -0.0156  0.0314  0.0032  -3.9598   0.0000   0.2161
  -7.000  -0.6306   0.01472   0.00581  -0.0152  0.0314  0.0032  -3.8241   0.0000   0.2160
  -6.800  -0.6100   0.01455   0.00561  -0.0149  0.0315  0.0032  -3.6898   0.0000   0.2159
  -6.600  -0.5894   0.01438   0.00542  -0.0145  0.0315  0.0032  -3.5569   0.0000   0.2157
  -6.400  -0.5686   0.01422   0.00523  -0.0142  0.0316  0.0032  -3.4255   0.0000   0.2155
  -6.200  -0.5478   0.01406   0.00505  -0.0139  0.0269  0.0018  -3.2956   0.0000   0.2152
  -6.000  -0.5269   0.01392   0.00488  -0.0136  0.0269  0.0018  -3.1671   0.0000   0.2149
  -5.800  -0.5059   0.01378   0.00472  -0.0133  0.0270  0.0018  -3.0403   0.0000   0.2145
  -5.600  -0.4848   0.01364   0.00457  -0.0130  0.0270  0.0018  -2.9151   0.0000   0.2139
  -5.400  -0.4636   0.01352   0.00441  -0.0128  0.0227  0.0009  -2.7914   0.0000   0.2134
  -5.200  -0.4424   0.01340   0.00427  -0.0125  0.0228  0.0009  -2.6695   0.0000   0.2127
  -5.000  -0.4211   0.01328   0.00414  -0.0123  0.0228  0.0008  -2.5492   0.0000   0.2118
  -4.800  -0.3997   0.01317   0.00401  -0.0120  0.0229  0.0008  -2.4345   0.0000   0.2109
  -4.600  -0.3783   0.01307   0.00389  -0.0118  0.0229  0.0008  -2.3259   0.0000   0.2098
  -4.400  -0.3567   0.01297   0.00377  -0.0116  0.0189  0.0002  -2.2188   0.0000   0.2085
  -4.200  -0.3352   0.01288   0.00366  -0.0114  0.0190  0.0002  -2.1132   0.0000   0.2070
  -4.000  -0.3136   0.01279   0.00356  -0.0112  0.0190  0.0002  -2.0091   0.0000   0.2053
  -3.800  -0.2919   0.01271   0.00346  -0.0110  0.0191  0.0002  -1.9066   0.0000   0.2032
  -3.600  -0.2702   0.01263   0.00337  -0.0109  0.0191  0.0002  -1.8056   0.0000   0.2008
  -3.400  -0.2484   0.01256   0.00328  -0.0107  0.0155  0.0000  -1.7062   0.0000   0.1978
  -3.200  -0.2266   0.01250   0.00321  -0.0105  0.0155  0.0000  -1.6085   0.0000   0.1943
  -3.000  -0.2048   0.01244   0.00313  -0.0104  0.0155  0.0000  -1.5143   0.0000   0.1899
  -2.800  -0.1829   0.01238   0.00306  -0.0102  0.0156  0.0000  -1.4270   0.0000   0.1845
  -2.600  -0.1609   0.01234   0.00300  -0.0101  0.0156  0.0000  -1.3410   0.0000   0.1774
  -2.400  -0.1390   0.01229   0.00294  -0.0100  0.0123  0.0002  -1.2565   0.0000   0.1681
  -2.200  -0.1170   0.01225   0.00289  -0.0098  0.0124  0.0002  -1.1733   0.0000   0.1552
  -2.000  -0.0950   0.01221   0.00285  -0.0097  0.0124  0.0002  -1.0916   0.0000   0.1362
  -1.800  -0.0730   0.01218   0.00281  -0.0096  0.0125  0.0002  -1.0114   0.0000   0.1057
  -1.600  -0.0510   0.01216   0.00277  -0.0095  0.0095  0.0007  -0.9380   0.0000   0.0487
  -1.400  -0.0289   0.01214   0.00274  -0.0094  0.0096  0.0007  -0.8667   0.0000  -0.0956
  -1.200  -0.0068   0.01212   0.00272  -0.0093  0.0096  0.0007  -0.7965   0.0000  -1.1709
  -1.000   0.0152   0.01211   0.00270  -0.0092  0.0096  0.0007  -0.7277   0.0000   0.8718
  -0.800   0.0373   0.01210   0.00268  -0.0091  0.0097  0.0007  -0.6956   0.0000   0.4969
  -0.600   0.0594   0.01210   0.00267  -0.0090  0.0071  0.0017  -0.7230   0.0000   0.4008
  -0.400   0.0815   0.01210   0.00266  -0.0089  0.0071  0.0017  -0.7509   0.0000   0.3568
  -0.200   0.1036   0.01210   0.00266  -0.0088  0.0071  0.0017  -0.7789   0.0000   0.3315
   0.000   0.1257   0.01211   0.00267  -0.0087  0.0072  0.0018  -0.8072   0.0000   0.3152
   0.200   0.1478   0.01212   0.00268  -0.0086  0.0049  0.0032  -0.8364   0.0000   0.3037
   0.400   0.1699   0.01214   0.00269  -0.0085  0.0050  0.0033  -0.8661   0.0000   0.2952
   0.600   0.1920   0.01217   0.00271  -0.0084  0.0050  0.0033  -0.8962   0.0000   0.2887
   0.800   0.2140   0.01219   0.00273  -0.0083  0.0050  0.0033  -0.9264   0.0000   0.2835
   1.000   0.2361   0.01222   0.00276  -0.0083  0.0050  0.0033  -0.9567   0.0000   0.2792
   1.200   0.2581   0.01226   0.00280  -0.0082  0.0032  0.0053  -0.9880   0.0000   0.2757
   1.400   0.2801   0.01230   0.00283  -0.0081  0.0032  0.0053  -1.0202   0.0000   0.2727
   1.600   0.3021   0.01234   0.00288  -0.0080  0.0032  0.0053  -1.0525   0.0000   0.2701
   1.800   0.3241   0.01239   0.00292  -0.0079  0.0033  0.0053  -1.0850   0.0000   0.2679
   2.000   0.3460   0.01244   0.00298  -0.0078  0.0033  0.0052  -1.1175   0.0000   0.2659
   2.200   0.3680   0.01249   0.00303  -0.0077  0.0018  0.0078  -1.1512   0.0000   0.2641
   2.400   0.3898   0.01255   0.00309  -0.0076  0.0018  0.0077  -1.1858   0.0000   0.2625
   2.600   0.4117   0.01262   0.00316  -0.0075  0.0018  0.0077  -1.2205   0.0000   0.2611
   2.800   0.4335   0.01269   0.00323  -0.0074  0.0019  0.0077  -1.2552   0.0000   0.2598
   3.000   0.4553   0.01276   0.00331  -0.0073  0.0008  0.0107  -1.2902   0.0000   0.2586
   3.200   0.4770   0.01284   0.00339  -0.0072  0.0008  0.0107  -1.3264   0.0000   0.2575
   3.400   0.4987   0.01292   0.00348  -0.0071  0.0009  0.0106  -1.3635   0.0000   0.2564
   3.600   0.5203   0.01300   0.00357  -0.0070  0.0009  0.0106  -1.4006   0.0000   0.2555
   3.800   0.5419   0.01309   0.00366  -0.0069  0.0009  0.0105  -1.4378   0.0000   0.2545
   4.000   0.5634   0.01319   0.00377  -0.0068  0.0002  0.0140  -1.4752   0.0000   0.2537
   4.200   0.5849   0.01329   0.00387  -0.0066  0.0002  0.0140  -1.5145   0.0000   0.2528
   4.400   0.6063   0.01339   0.00398  -0.0065  0.0002  0.0139  -1.5540   0.0000   0.2520
   4.600   0.6277   0.01350   0.00410  -0.0063  0.0002  0.0138  -1.5936   0.0000   0.2512
   4.800   0.6489   0.01361   0.00422  -0.0062  0.0000  0.0178  -1.6335   0.0000   0.2505
   5.000   0.6701   0.01373   0.00435  -0.0060  0.0000  0.0177  -1.6740   0.0000   0.2498
   5.200   0.6912   0.01385   0.00448  -0.0059  0.0000  0.0176  -1.7160   0.0000   0.2491
   5.400   0.7123   0.01398   0.00462  -0.0057  0.0000  0.0175  -1.7581   0.0000   0.2484
   5.600   0.7332   0.01411   0.00477  -0.0055  0.0000  0.0174  -1.8005   0.0000   0.2477
   5.800   0.7541   0.01425   0.00492  -0.0053  0.0001  0.0217  -1.8430   0.0000   0.2470
   6.000   0.7749   0.01440   0.00508  -0.0051  0.0001  0.0216  -1.8873   0.0000   0.2464
   6.200   0.7955   0.01455   0.00524  -0.0049  0.0001  0.0215  -1.9321   0.0000   0.2457
   6.400   0.8161   0.01470   0.00541  -0.0046  0.0001  0.0215  -1.9770   0.0000   0.2451
   6.600   0.8365   0.01486   0.00559  -0.0044  0.0006  0.0261  -2.0220   0.0000   0.2444
   6.800   0.8569   0.01503   0.00577  -0.0041  0.0006  0.0260  -2.0688   0.0000   0.2438
   7.000   0.8771   0.01520   0.00596  -0.0039  0.0006  0.0259  -2.1162   0.0000   0.2431
   7.200   0.8971   0.01538   0.00615  -0.0036  0.0006  0.0258  -2.1637   0.0000   0.2425
   7.400   0.9170   0.01557   0.00635  -0.0033  0.0006  0.0257  -2.2115   0.0000   0.2418
   7.600   0.9368   0.01576   0.00657  -0.0029  0.0015  0.0308  -2.2614   0.0000   0.2412
   7.800   0.9564   0.01596   0.00679  -0.0026  0.0015  0.0306  -2.3114   0.0000   0.2405
   8.000   0.9758   0.01616   0.00701  -0.0022  0.0015  0.0305  -2.3615   0.0000   0.2398
   8.200   0.9951   0.01638   0.00725  -0.0019  0.0015  0.0304  -2.4135   0.0000   0.2391
   8.400   1.0141   0.01660   0.00750  -0.0014  0.0026  0.0358  -2.4660   0.0000   0.2384
   8.600   1.0330   0.01682   0.00774  -0.0010  0.0027  0.0357  -2.5186   0.0000   0.2377
   8.800   1.0516   0.01706   0.00800  -0.0005  0.0027  0.0356  -2.5732   0.0000   0.2370
   9.000   1.0699   0.01731   0.00827  -0.0000  0.0027  0.0354  -2.6285   0.0000   0.2363
   9.200   1.0880   0.01756   0.00855   0.0005  0.0027  0.0353  -2.6836   0.0000   0.2355
   9.400   1.1058   0.01782   0.00885   0.0011  0.0042  0.0411  -2.7416   0.0000   0.2347
   9.600   1.1233   0.01810   0.00915   0.0017  0.0042  0.0409  -2.8002   0.0000   0.2339
   9.800   1.1404   0.01838   0.00946   0.0023  0.0042  0.0408  -2.8605   0.0000   0.2331
  10.000   1.1571   0.01867   0.00978   0.0030  0.0043  0.0407  -2.9230   0.0000   0.2322
  10.200   1.1735   0.01898   0.01012   0.0038  0.0060  0.0468  -2.9881   0.0000   0.2313
  10.400   1.1892   0.01929   0.01047   0.0046  0.0061  0.0466  -3.0538   0.0000   0.2303
  10.600   1.2031   0.01961   0.01081   0.0058  0.0061  0.0465  -3.1196   0.0000   0.2291
  10.800   1.2153   0.01992   0.01116   0.0073  0.0061  0.0464  -3.1849   0.0000   0.2276
  11.000   1.2283   0.02029   0.01156   0.0085  0.0061  0.0463  -3.2541   0.0000   0.2263
  11.200   1.2418   0.02069   0.01200   0.0096  0.0082  0.0527  -3.3286   0.0000   0.2252
  11.400   1.2552   0.02112   0.01247   0.0106  0.0082  0.0526  -3.4046   0.0000   0.2241
  11.600   1.2682   0.02158   0.01296   0.0116  0.0083  0.0525  -3.4834   0.0000   0.2231
  11.800   1.2808   0.02207   0.01349   0.0127  0.0083  0.0523  -3.5620   0.0000   0.2220
  12.000   1.2928   0.02259   0.01405   0.0137  0.0083  0.0522  -3.6444   0.0000   0.2210
  12.200   1.3044   0.02315   0.01466   0.0147  0.0107  0.0589  -3.7260   0.0000   0.2199
  12.400   1.3154   0.02375   0.01530   0.0157  0.0107  0.0588  -3.8068   0.0000   0.2189
  12.600   1.3260   0.02440   0.01599   0.0167  0.0108  0.0587  -3.8916   0.0000   0.2179
  12.800   1.3360   0.02510   0.01674   0.0177  0.0108  0.0586  -3.9756   0.0000   0.2169
  13.000   1.3455   0.02586   0.01755   0.0186  0.0108  0.0585  -4.0584   0.0000   0.2159
  13.200   1.3544   0.02669   0.01842   0.0194  0.0109  0.0583  -4.1399   0.0000   0.2150
  13.400   1.3628   0.02759   0.01938   0.0202  0.0135  0.0654  -4.2222   0.0000   0.2141
  13.600   1.3705   0.02858   0.02042   0.0209  0.0136  0.0653  -4.3058   0.0000   0.2133
  13.800   1.3776   0.02965   0.02155   0.0215  0.0136  0.0652  -4.3877   0.0000   0.2125
  14.000   1.3841   0.03084   0.02279   0.0221  0.0136  0.0651  -4.4674   0.0000   0.2117
  14.200   1.3897   0.03213   0.02415   0.0225  0.0137  0.0650  -4.5446   0.0000   0.2111
  14.400   1.3947   0.03356   0.02564   0.0228  0.0137  0.0649  -4.6192   0.0000   0.2105
  14.600   1.3989   0.03513   0.02727   0.0230  0.0167  0.0722  -4.6909   0.0000   0.2099
  14.800   1.4020   0.03686   0.02907   0.0230  0.0167  0.0721  -4.7586   0.0000   0.2095
  15.000   1.4041   0.03877   0.03104   0.0229  0.0167  0.0720  -4.8271   0.0000   0.2091
  15.200   1.4052   0.04088   0.03322   0.0226  0.0168  0.0720  -4.8911   0.0000   0.2088
  15.400   1.4049   0.04320   0.03563   0.0222  0.0168  0.0719  -4.9492   0.0000   0.2086
  15.600   1.4032   0.04577   0.03827   0.0216  0.0168  0.0718  -5.0009   0.0000   0.2086
  15.800   1.4000   0.04861   0.04119   0.0208  0.0168  0.0718  -5.0455   0.0000   0.2086
  16.000   1.3951   0.05174   0.04440   0.0199  0.0168  0.0717  -5.0818   0.0000   0.2087
  16.200   1.3882   0.05519   0.04795   0.0187  0.0201  0.0793  -5.1082   0.0000   0.2089
  16.400   1.3793   0.05900   0.05185   0.0174  0.0201  0.0793  -5.1248   0.0000   0.2093
  16.600   1.3684   0.06319   0.05614   0.0159  0.0201  0.0793  -5.1305   0.0000   0.2098
  16.800   1.3550   0.06778   0.06082   0.0141  0.0201  0.0793  -5.1232   0.0000   0.2104
  17.000   1.3395   0.07277   0.06592   0.0122  0.0201  0.0793  -5.1037   0.0000   0.2112
  17.200   1.3220   0.07813   0.07139   0.0101  0.0201  0.0793  -5.0727   0.0000   0.2122
  17.400   1.3026   0.08381   0.07717   0.0079  0.0201  0.0793  -5.0303   0.0000   0.2132
  17.600   1.2823   0.08973   0.08320   0.0055  0.0200  0.0793  -4.9803   0.0000   0.2145
  17.800   1.2619   0.09576   0.08933   0.0031  0.0200  0.0794  -4.9266   0.0000   0.2159
  18.000   1.2420   0.10172   0.09539   0.0006  0.0200  0.0794  -4.8726   0.0000   0.2174
  18.200   1.2229   0.10768   0.10145  -0.0019  0.0200  0.0794  -4.8188   0.0000   0.2189
  18.400   1.2060   0.11336   0.10721  -0.0044  0.0200  0.0795  -4.7736   0.0000   0.2205
  18.600   1.1906   0.11882   0.11275  -0.0068  0.0199  0.0795  -4.7337   0.0000   0.2222
  18.800   1.1768   0.12407   0.11808  -0.0092  0.0199  0.0795  -4.6992   0.0000   0.2238
  19.000   1.1647   0.12911   0.12319  -0.0115  0.0199  0.0795  -4.6713   0.0000   0.2255
  19.200   1.1540   0.13399   0.12814  -0.0139  0.0199  0.0795  -4.6484   0.0000   0.2272
  19.400   1.1449   0.13865   0.13286  -0.0162  0.0199  0.0795  -4.6318   0.0000   0.2289
  19.600   1.1378   0.14296   0.13723  -0.0184  0.0199  0.0795  -4.6248   0.0000   0.2304
  19.800   1.1305   0.14732   0.14165  -0.0206  0.0199  0.0795  -4.6150   0.0000   0.2321
  20.000   1.1248   0.15147   0.14585  -0.0229  0.0199  0.0795  -4.6145   0.0000   0.2337
  20.200   1.1202   0.15545   0.14988  -0.0250  0.0199  0.0795  -4.6201   0.0000   0.2353
  20.400   1.1159   0.15943   0.15391  -0.0273  0.0199  0.0795  -4.6250   0.0000   0.2369
  20.600   1.1128   0.16320   0.15773  -0.0294  0.0199  0.0794  -4.6365   0.0000   0.2385
  20.800   1.1097   0.16700   0.16157  -0.0316  0.0199  0.0794  -4.6465   0.0000   0.2401
  21.000   1.1076   0.17064   0.16527  -0.0338  0.0199  0.0794  -4.6610   0.0000   0.2417
  21.200   1.1058   0.17421   0.16888  -0.0360  0.0200  0.0794  -4.6767   0.0000   0.2432
  21.400   1.1039   0.17782   0.17254  -0.0382  0.0200  0.0793  -4.6899   0.0000   0.2449
  21.600   1.1033   0.18118   0.17594  -0.0404  0.0200  0.0793  -4.7111   0.0000   0.2463
  21.800   1.1018   0.18478   0.17958  -0.0427  0.0200  0.0793  -4.7236   0.0000   0.2480
  22.000   1.1016   0.18812   0.18297  -0.0449  0.0235  0.0871  -4.7449   0.0000   0.2495
  22.200   1.1013   0.19149   0.18638  -0.0471  0.0235  0.0871  -4.7643   0.0000   0.2511
  22.400   1.1009   0.19494   0.18986  -0.0494  0.0235  0.0870  -4.7805   0.0000   0.2527
  22.600   1.1017   0.19812   0.19308  -0.0516  0.0235  0.0870  -4.8056   0.0000   0.2542
  22.800   1.1015   0.20156   0.19657  -0.0540  0.0236  0.0870  -4.8202   0.0000   0.2559
  23.000   1.1023   0.20479   0.19984  -0.0562  0.0236  0.0869  -4.8418   0.0000   0.2574
  23.200   1.1035   0.20793   0.20302  -0.0585  0.0236  0.0869  -4.8663   0.0000   0.2589
  23.400   1.1036   0.21135   0.20648  -0.0609  0.0236  0.0869  -4.8790   0.0000   0.2606
  23.600   1.1050   0.21449   0.20966  -0.0632  0.0236  0.0868  -4.9019   0.0000   0.2621
  23.800   1.1063   0.21764   0.21284  -0.0655  0.0236  0.0868  -4.9237   0.0000   0.2636
  24.000   1.1070   0.22097   0.21622  -0.0680  0.0275  0.0949  -4.9418   0.0000   0.2653
  24.200   1.1087   0.22405   0.21934  -0.0703  0.0275  0.0948  -4.9690   0.0000   0.2668
  24.400   1.1101   0.22720   0.22252  -0.0727  0.0275  0.0948  -4.9922   0.0000   0.2684
  24.600   1.1112   0.23042   0.22578  -0.0752  0.0275  0.0948  -5.0104   0.0000   0.2700
  24.800   1.1131   0.23344   0.22884  -0.0775  0.0275  0.0947  -5.0360   0.0000   0.2715
  25.000   1.1147   0.23658   0.23201  -0.0799  0.0275  0.0947  -5.0561   0.0000   0.2730


