xflr5 v6.47

 Calculated polar for: NACA 23015

 1 1 Reynolds number fixed          Mach number fixed         

 xtrf =   1.000 (top)        1.000 (bottom)
 Mach =   0.000     Re =     2.000 e 6     Ncrit =   0.100

  alpha     CL        CD       CDp       Cm    Top Xtr Bot Xtr   Cpmin    Chinge    XCp    
 ------- -------- --------- --------- -------- ------- ------- -------- --------- ---------
 -10.000  -0.9461   0.01580   0.00821  -0.0193  0.0400  0.0127  -6.2315   0.0000   0.2174
  -9.800  -0.9269   0.01555   0.00792  -0.0187  0.0400  0.0127  -6.0633   0.0000   0.2178
  -9.600  -0.9075   0.01530   0.00765  -0.0182  0.0401  0.0127  -5.8962   0.0000   0.2181
  -9.400  -0.8880   0.01507   0.00739  -0.0177  0.0401  0.0126  -5.7303   0.0000   0.2184
  -9.200  -0.8682   0.01484   0.00713  -0.0173  0.0349  0.0099  -5.5655   0.0000   0.2186
  -9.000  -0.8484   0.01462   0.00688  -0.0168  0.0349  0.0098  -5.4020   0.0000   0.2189
  -8.800  -0.8284   0.01441   0.00665  -0.0164  0.0350  0.0098  -5.2399   0.0000   0.2191
  -8.600  -0.8082   0.01420   0.00642  -0.0160  0.0350  0.0098  -5.0792   0.0000   0.2193
  -8.400  -0.7879   0.01400   0.00619  -0.0156  0.0350  0.0098  -4.9199   0.0000   0.2194
  -8.200  -0.7675   0.01381   0.00598  -0.0152  0.0302  0.0074  -4.7621   0.0000   0.2195
  -8.000  -0.7470   0.01363   0.00577  -0.0149  0.0302  0.0073  -4.6059   0.0000   0.2196
  -7.800  -0.7264   0.01345   0.00557  -0.0145  0.0302  0.0073  -4.4512   0.0000   0.2197
  -7.600  -0.7057   0.01328   0.00538  -0.0142  0.0302  0.0073  -4.3011   0.0000   0.2197
  -7.400  -0.6849   0.01312   0.00520  -0.0139  0.0303  0.0073  -4.1593   0.0000   0.2197
  -7.200  -0.6639   0.01296   0.00502  -0.0136  0.0258  0.0052  -4.0190   0.0000   0.2196
  -7.000  -0.6429   0.01281   0.00485  -0.0133  0.0258  0.0052  -3.8802   0.0000   0.2195
  -6.800  -0.6218   0.01266   0.00468  -0.0130  0.0258  0.0052  -3.7429   0.0000   0.2194
  -6.600  -0.6006   0.01252   0.00452  -0.0128  0.0258  0.0052  -3.6072   0.0000   0.2192
  -6.400  -0.5793   0.01239   0.00437  -0.0125  0.0259  0.0052  -3.4730   0.0000   0.2190
  -6.200  -0.5579   0.01226   0.00422  -0.0123  0.0217  0.0034  -3.3404   0.0000   0.2186
  -6.000  -0.5365   0.01214   0.00409  -0.0121  0.0217  0.0034  -3.2095   0.0000   0.2183
  -5.800  -0.5150   0.01202   0.00395  -0.0119  0.0217  0.0034  -3.0803   0.0000   0.2178
  -5.600  -0.4934   0.01191   0.00382  -0.0117  0.0218  0.0034  -2.9527   0.0000   0.2173
  -5.400  -0.4718   0.01180   0.00370  -0.0115  0.0218  0.0034  -2.8267   0.0000   0.2167
  -5.200  -0.4500   0.01170   0.00359  -0.0113  0.0180  0.0020  -2.7025   0.0000   0.2160
  -5.000  -0.4283   0.01161   0.00348  -0.0111  0.0180  0.0020  -2.5800   0.0000   0.2152
  -4.800  -0.4065   0.01152   0.00337  -0.0110  0.0180  0.0020  -2.4599   0.0000   0.2142
  -4.600  -0.3846   0.01143   0.00327  -0.0108  0.0180  0.0020  -2.3497   0.0000   0.2131
  -4.400  -0.3626   0.01135   0.00318  -0.0107  0.0146  0.0010  -2.2410   0.0000   0.2118
  -4.200  -0.3407   0.01127   0.00309  -0.0105  0.0146  0.0010  -2.1339   0.0000   0.2103
  -4.000  -0.3186   0.01120   0.00300  -0.0104  0.0146  0.0010  -2.0283   0.0000   0.2086
  -3.800  -0.2966   0.01114   0.00293  -0.0103  0.0146  0.0010  -1.9243   0.0000   0.2065
  -3.600  -0.2744   0.01107   0.00285  -0.0102  0.0147  0.0009  -1.8220   0.0000   0.2041
  -3.400  -0.2523   0.01101   0.00278  -0.0100  0.0115  0.0003  -1.7212   0.0000   0.2012
  -3.200  -0.2301   0.01096   0.00272  -0.0099  0.0115  0.0003  -1.6222   0.0000   0.1977
  -3.000  -0.2079   0.01091   0.00266  -0.0099  0.0116  0.0003  -1.5249   0.0000   0.1934
  -2.800  -0.1856   0.01087   0.00260  -0.0098  0.0116  0.0003  -1.4366   0.0000   0.1880
  -2.600  -0.1634   0.01083   0.00256  -0.0097  0.0116  0.0003  -1.3496   0.0000   0.1810
  -2.400  -0.1411   0.01079   0.00251  -0.0096  0.0088  0.0000  -1.2641   0.0000   0.1718
  -2.200  -0.1187   0.01076   0.00247  -0.0095  0.0088  0.0000  -1.1801   0.0000   0.1591
  -2.000  -0.0964   0.01073   0.00243  -0.0095  0.0089  0.0000  -1.0976   0.0000   0.1404
  -1.800  -0.0740   0.01070   0.00240  -0.0094  0.0089  0.0000  -1.0165   0.0000   0.1103
  -1.600  -0.0517   0.01068   0.00237  -0.0093  0.0065  0.0001  -0.9413   0.0000   0.0540
  -1.400  -0.0293   0.01067   0.00235  -0.0093  0.0065  0.0001  -0.8693   0.0000  -0.0885
  -1.200  -0.0069   0.01065   0.00233  -0.0092  0.0065  0.0001  -0.7986   0.0000  -1.1593
  -1.000   0.0155   0.01064   0.00232  -0.0092  0.0065  0.0001  -0.7291   0.0000   0.8618
  -0.800   0.0379   0.01064   0.00231  -0.0091  0.0065  0.0001  -0.6981   0.0000   0.4949
  -0.600   0.0603   0.01064   0.00230  -0.0091  0.0045  0.0006  -0.7260   0.0000   0.4006
  -0.400   0.0828   0.01064   0.00230  -0.0091  0.0045  0.0006  -0.7541   0.0000   0.3573
  -0.200   0.1052   0.01065   0.00230  -0.0090  0.0045  0.0006  -0.7823   0.0000   0.3325
   0.000   0.1276   0.01066   0.00230  -0.0090  0.0045  0.0006  -0.8107   0.0000   0.3165
   0.200   0.1500   0.01067   0.00231  -0.0089  0.0028  0.0015  -0.8406   0.0000   0.3052
   0.400   0.1724   0.01069   0.00233  -0.0089  0.0028  0.0015  -0.8707   0.0000   0.2968
   0.600   0.1948   0.01071   0.00234  -0.0089  0.0028  0.0015  -0.9010   0.0000   0.2904
   0.800   0.2172   0.01073   0.00237  -0.0088  0.0028  0.0015  -0.9314   0.0000   0.2852
   1.000   0.2396   0.01076   0.00239  -0.0088  0.0029  0.0015  -0.9620   0.0000   0.2811
   1.200   0.2619   0.01079   0.00242  -0.0088  0.0015  0.0029  -0.9941   0.0000   0.2776
   1.400   0.2843   0.01082   0.00246  -0.0087  0.0015  0.0029  -1.0265   0.0000   0.2746
   1.600   0.3066   0.01086   0.00249  -0.0087  0.0016  0.0029  -1.0591   0.0000   0.2721
   1.800   0.3289   0.01090   0.00254  -0.0087  0.0016  0.0029  -1.0919   0.0000   0.2699
   2.000   0.3512   0.01095   0.00258  -0.0086  0.0016  0.0029  -1.1249   0.0000   0.2679
   2.200   0.3734   0.01100   0.00263  -0.0086  0.0006  0.0047  -1.1593   0.0000   0.2662
   2.400   0.3956   0.01105   0.00269  -0.0086  0.0007  0.0047  -1.1942   0.0000   0.2646
   2.600   0.4178   0.01111   0.00274  -0.0085  0.0007  0.0047  -1.2292   0.0000   0.2632
   2.800   0.4400   0.01117   0.00281  -0.0085  0.0007  0.0047  -1.2644   0.0000   0.2620
   3.000   0.4621   0.01123   0.00287  -0.0084  0.0001  0.0070  -1.2999   0.0000   0.2608
   3.200   0.4842   0.01130   0.00294  -0.0084  0.0001  0.0070  -1.3369   0.0000   0.2597
   3.400   0.5062   0.01137   0.00302  -0.0083  0.0001  0.0070  -1.3743   0.0000   0.2586
   3.600   0.5282   0.01145   0.00309  -0.0083  0.0001  0.0069  -1.4119   0.0000   0.2577
   3.800   0.5502   0.01152   0.00318  -0.0082  0.0001  0.0069  -1.4497   0.0000   0.2568
   4.000   0.5721   0.01161   0.00327  -0.0081  0.0000  0.0096  -1.4878   0.0000   0.2559
   4.200   0.5940   0.01169   0.00336  -0.0081  0.0000  0.0096  -1.5277   0.0000   0.2551
   4.400   0.6158   0.01178   0.00345  -0.0080  0.0000  0.0096  -1.5678   0.0000   0.2543
   4.600   0.6375   0.01188   0.00355  -0.0079  0.0000  0.0096  -1.6081   0.0000   0.2536
   4.800   0.6592   0.01198   0.00366  -0.0078  0.0002  0.0127  -1.6487   0.0000   0.2529
   5.000   0.6808   0.01208   0.00377  -0.0077  0.0002  0.0127  -1.6900   0.0000   0.2522
   5.200   0.7024   0.01219   0.00388  -0.0076  0.0002  0.0126  -1.7328   0.0000   0.2515
   5.400   0.7239   0.01230   0.00400  -0.0075  0.0002  0.0126  -1.7757   0.0000   0.2508
   5.600   0.7453   0.01241   0.00412  -0.0074  0.0002  0.0125  -1.8188   0.0000   0.2502
   5.800   0.7666   0.01253   0.00425  -0.0072  0.0008  0.0161  -1.8621   0.0000   0.2495
   6.000   0.7879   0.01266   0.00438  -0.0071  0.0008  0.0160  -1.9076   0.0000   0.2489
   6.200   0.8091   0.01279   0.00452  -0.0070  0.0008  0.0160  -1.9533   0.0000   0.2483
   6.400   0.8302   0.01292   0.00466  -0.0068  0.0008  0.0159  -1.9991   0.0000   0.2476
   6.600   0.8511   0.01306   0.00482  -0.0066  0.0018  0.0199  -2.0452   0.0000   0.2470
   6.800   0.8720   0.01321   0.00497  -0.0065  0.0018  0.0198  -2.0933   0.0000   0.2464
   7.000   0.8928   0.01335   0.00513  -0.0063  0.0018  0.0197  -2.1419   0.0000   0.2458
   7.200   0.9135   0.01351   0.00530  -0.0061  0.0018  0.0197  -2.1905   0.0000   0.2452
   7.400   0.9341   0.01367   0.00547  -0.0059  0.0030  0.0240  -2.2399   0.0000   0.2446
   7.600   0.9545   0.01383   0.00565  -0.0056  0.0031  0.0239  -2.2912   0.0000   0.2440
   7.800   0.9748   0.01400   0.00583  -0.0054  0.0031  0.0239  -2.3426   0.0000   0.2433
   8.000   0.9950   0.01418   0.00602  -0.0051  0.0031  0.0238  -2.3942   0.0000   0.2427
   8.200   1.0150   0.01436   0.00622  -0.0048  0.0031  0.0237  -2.4483   0.0000   0.2421
   8.400   1.0349   0.01455   0.00643  -0.0045  0.0047  0.0284  -2.5025   0.0000   0.2414
   8.600   1.0546   0.01475   0.00664  -0.0042  0.0047  0.0283  -2.5572   0.0000   0.2408
   8.800   1.0741   0.01495   0.00685  -0.0039  0.0047  0.0282  -2.6143   0.0000   0.2401
   9.000   1.0934   0.01516   0.00708  -0.0035  0.0048  0.0282  -2.6715   0.0000   0.2395
   9.200   1.1126   0.01537   0.00732  -0.0031  0.0066  0.0332  -2.7306   0.0000   0.2388
   9.400   1.1315   0.01560   0.00756  -0.0027  0.0067  0.0331  -2.7907   0.0000   0.2381
   9.600   1.1502   0.01583   0.00781  -0.0022  0.0067  0.0330  -2.8527   0.0000   0.2374
   9.800   1.1686   0.01607   0.00806  -0.0018  0.0067  0.0330  -2.9159   0.0000   0.2366
  10.000   1.1868   0.01631   0.00833  -0.0012  0.0089  0.0383  -2.9819   0.0000   0.2359
  10.200   1.2047   0.01657   0.00861  -0.0007  0.0090  0.0382  -3.0497   0.0000   0.2351
  10.400   1.2223   0.01683   0.00890  -0.0001  0.0090  0.0381  -3.1199   0.0000   0.2343
  10.600   1.2395   0.01711   0.00919   0.0005  0.0090  0.0381  -3.1934   0.0000   0.2335
  10.800   1.2563   0.01739   0.00950   0.0012  0.0091  0.0380  -3.2703   0.0000   0.2326
  11.000   1.2726   0.01768   0.00982   0.0020  0.0116  0.0437  -3.3498   0.0000   0.2317
  11.200   1.2885   0.01799   0.01015   0.0028  0.0116  0.0436  -3.4317   0.0000   0.2308
  11.400   1.3020   0.01828   0.01047   0.0041  0.0116  0.0435  -3.5127   0.0000   0.2295
  11.600   1.3135   0.01858   0.01080   0.0057  0.0117  0.0435  -3.5909   0.0000   0.2280
  11.800   1.3268   0.01894   0.01119   0.0069  0.0117  0.0434  -3.6773   0.0000   0.2268
  12.000   1.3403   0.01934   0.01161   0.0080  0.0145  0.0494  -3.7650   0.0000   0.2257
  12.200   1.3535   0.01975   0.01206   0.0091  0.0145  0.0493  -3.8561   0.0000   0.2246
  12.400   1.3663   0.02020   0.01253   0.0102  0.0146  0.0492  -3.9484   0.0000   0.2235
  12.600   1.3787   0.02067   0.01304   0.0112  0.0146  0.0492  -4.0405   0.0000   0.2225
  12.800   1.3906   0.02117   0.01358   0.0123  0.0147  0.0491  -4.1320   0.0000   0.2214
  13.000   1.4020   0.02171   0.01415   0.0134  0.0178  0.0554  -4.2266   0.0000   0.2203
  13.200   1.4130   0.02230   0.01477   0.0144  0.0178  0.0553  -4.3221   0.0000   0.2193
  13.400   1.4234   0.02292   0.01543   0.0155  0.0179  0.0553  -4.4165   0.0000   0.2182
  13.600   1.4333   0.02360   0.01615   0.0165  0.0179  0.0552  -4.5097   0.0000   0.2172
  13.800   1.4426   0.02434   0.01693   0.0174  0.0179  0.0552  -4.6017   0.0000   0.2162
  14.000   1.4514   0.02515   0.01778   0.0183  0.0214  0.0618  -4.6923   0.0000   0.2153
  14.200   1.4597   0.02603   0.01870   0.0192  0.0214  0.0617  -4.7837   0.0000   0.2144
  14.400   1.4673   0.02698   0.01970   0.0199  0.0214  0.0616  -4.8773   0.0000   0.2135
  14.600   1.4743   0.02803   0.02080   0.0206  0.0215  0.0616  -4.9689   0.0000   0.2127
  14.800   1.4808   0.02918   0.02199   0.0212  0.0215  0.0615  -5.0586   0.0000   0.2119
  15.000   1.4864   0.03044   0.02330   0.0217  0.0215  0.0615  -5.1454   0.0000   0.2112
  15.200   1.4913   0.03183   0.02474   0.0221  0.0253  0.0684  -5.2295   0.0000   0.2105
  15.400   1.4954   0.03335   0.02632   0.0223  0.0253  0.0683  -5.3107   0.0000   0.2099
  15.600   1.4985   0.03503   0.02806   0.0225  0.0253  0.0683  -5.3873   0.0000   0.2094
  15.800   1.5006   0.03688   0.02996   0.0225  0.0254  0.0682  -5.4598   0.0000   0.2089
  16.000   1.5016   0.03892   0.03207   0.0223  0.0254  0.0682  -5.5278   0.0000   0.2085
  16.200   1.5013   0.04118   0.03439   0.0220  0.0254  0.0681  -5.5896   0.0000   0.2083
  16.400   1.4995   0.04367   0.03695   0.0215  0.0254  0.0681  -5.6447   0.0000   0.2080
  16.600   1.4963   0.04641   0.03976   0.0209  0.0255  0.0680  -5.6971   0.0000   0.2079
  16.800   1.4915   0.04945   0.04287   0.0200  0.0295  0.0753  -5.7416   0.0000   0.2079
  17.000   1.4846   0.05280   0.04630   0.0190  0.0295  0.0753  -5.7753   0.0000   0.2080
  17.200   1.4757   0.05651   0.05009   0.0178  0.0295  0.0752  -5.7983   0.0000   0.2082
  17.400   1.4647   0.06060   0.05426   0.0163  0.0296  0.0752  -5.8096   0.0000   0.2085
  17.600   1.4512   0.06509   0.05884   0.0147  0.0296  0.0752  -5.8069   0.0000   0.2090
  17.800   1.4351   0.07001   0.06386   0.0129  0.0296  0.0752  -5.7893   0.0000   0.2096
  18.000   1.4166   0.07538   0.06933   0.0109  0.0295  0.0752  -5.7574   0.0000   0.2104
  18.200   1.3957   0.08115   0.07520   0.0086  0.0295  0.0752  -5.7106   0.0000   0.2113
  18.400   1.3732   0.08725   0.08140   0.0062  0.0295  0.0753  -5.6519   0.0000   0.2124
  18.600   1.3499   0.09356   0.08781   0.0037  0.0295  0.0753  -5.5864   0.0000   0.2137
  18.800   1.3267   0.09991   0.09425   0.0011  0.0295  0.0753  -5.5172   0.0000   0.2151
  19.000   1.3035   0.10635   0.10079  -0.0016  0.0294  0.0753  -5.4445   0.0000   0.2167
  19.200   1.2831   0.11246   0.10699  -0.0042  0.0294  0.0754  -5.3833   0.0000   0.2183
  19.400   1.2633   0.11854   0.11315  -0.0069  0.0294  0.0754  -5.3218   0.0000   0.2200
  19.600   1.2461   0.12424   0.11893  -0.0095  0.0294  0.0754  -5.2715   0.0000   0.2217
  19.800   1.2310   0.12969   0.12445  -0.0121  0.0294  0.0754  -5.2304   0.0000   0.2234
  20.000   1.2181   0.13486   0.12968  -0.0146  0.0294  0.0754  -5.1985   0.0000   0.2251
  20.200   1.2078   0.13964   0.13452  -0.0171  0.0294  0.0754  -5.1794   0.0000   0.2267
  20.400   1.1977   0.14437   0.13931  -0.0195  0.0294  0.0754  -5.1595   0.0000   0.2284
  20.600   1.1884   0.14904   0.14403  -0.0220  0.0294  0.0754  -5.1414   0.0000   0.2302
  20.800   1.1822   0.15320   0.14824  -0.0243  0.0294  0.0754  -5.1410   0.0000   0.2317
  21.000   1.1751   0.15758   0.15267  -0.0267  0.0294  0.0754  -5.1322   0.0000   0.2335
  21.200   1.1700   0.16165   0.15679  -0.0291  0.0294  0.0754  -5.1341   0.0000   0.2351
  21.400   1.1654   0.16565   0.16084  -0.0314  0.0294  0.0754  -5.1371   0.0000   0.2368
  21.600   1.1614   0.16957   0.16480  -0.0338  0.0294  0.0754  -5.1427   0.0000   0.2384
  21.800   1.1579   0.17340   0.16868  -0.0362  0.0294  0.0754  -5.1498   0.0000   0.2401
  22.000   1.1555   0.17702   0.17233  -0.0384  0.0294  0.0754  -5.1635   0.0000   0.2416
  22.200   1.1521   0.18087   0.17623  -0.0409  0.0294  0.0754  -5.1672   0.0000   0.2434
  22.400   1.1511   0.18425   0.17965  -0.0431  0.0294  0.0754  -5.1880   0.0000   0.2448
  22.600   1.1480   0.18813   0.18358  -0.0457  0.0294  0.0753  -5.1900   0.0000   0.2466
  22.800   1.1476   0.19146   0.18694  -0.0479  0.0294  0.0753  -5.2116   0.0000   0.2481
  23.000   1.1459   0.19512   0.19064  -0.0504  0.0338  0.0828  -5.2207   0.0000   0.2499
  23.200   1.1452   0.19855   0.19411  -0.0528  0.0338  0.0828  -5.2370   0.0000   0.2515
  23.400   1.1455   0.20178   0.19738  -0.0551  0.0338  0.0828  -5.2645   0.0000   0.2529
  23.600   1.1440   0.20548   0.20112  -0.0577  0.0338  0.0828  -5.2736   0.0000   0.2548
  23.800   1.1445   0.20870   0.20437  -0.0600  0.0338  0.0827  -5.3009   0.0000   0.2563
  24.000   1.1445   0.21207   0.20778  -0.0625  0.0338  0.0827  -5.3212   0.0000   0.2579
  24.200   1.1442   0.21553   0.21127  -0.0650  0.0338  0.0827  -5.3366   0.0000   0.2596
  24.400   1.1452   0.21868   0.21446  -0.0674  0.0338  0.0827  -5.3643   0.0000   0.2611
  24.600   1.1450   0.22217   0.21799  -0.0700  0.0339  0.0827  -5.3764   0.0000   0.2629
  24.800   1.1457   0.22542   0.22127  -0.0725  0.0339  0.0826  -5.3977   0.0000   0.2645
  25.000   1.1471   0.22848   0.22436  -0.0749  0.0339  0.0826  -5.4247   0.0000   0.2660


