xflr5 v6.47

 Calculated polar for: NACA 23015

 1 1 Reynolds number fixed          Mach number fixed         

 xtrf =   1.000 (top)        1.000 (bottom)
 Mach =   0.000     Re =     0.300 e 6     Ncrit =   0.100

  alpha     CL        CD       CDp       Cm    Top Xtr Bot Xtr   Cpmin    Chinge    XCp    
 ------- -------- --------- --------- -------- ------- ------- -------- --------- ---------
 -10.000  -0.8664   0.02512   0.01503  -0.0297  0.0695  0.0030  -5.7345   0.0000   0.2031
  -9.800  -0.8506   0.02464   0.01447  -0.0289  0.0697  0.0030  -5.5913   0.0000   0.2037
  -9.600  -0.8344   0.02417   0.01393  -0.0280  0.0698  0.0029  -5.4478   0.0000   0.2042
  -9.400  -0.8179   0.02372   0.01340  -0.0272  0.0626  0.0017  -5.3042   0.0000   0.2047
  -9.200  -0.8011   0.02329   0.01290  -0.0265  0.0628  0.0017  -5.1606   0.0000   0.2052
  -9.000  -0.7840   0.02287   0.01243  -0.0257  0.0629  0.0017  -5.0173   0.0000   0.2056
  -8.800  -0.7666   0.02248   0.01197  -0.0250  0.0630  0.0017  -4.8744   0.0000   0.2059
  -8.600  -0.7490   0.02210   0.01153  -0.0243  0.0631  0.0016  -4.7323   0.0000   0.2063
  -8.400  -0.7313   0.02173   0.01109  -0.0237  0.0563  0.0008  -4.5931   0.0000   0.2066
  -8.200  -0.7132   0.02138   0.01069  -0.0230  0.0564  0.0008  -4.4529   0.0000   0.2068
  -8.000  -0.6950   0.02104   0.01029  -0.0224  0.0565  0.0007  -4.3135   0.0000   0.2070
  -7.800  -0.6766   0.02072   0.00992  -0.0218  0.0567  0.0007  -4.1806   0.0000   0.2072
  -7.600  -0.6581   0.02040   0.00956  -0.0212  0.0568  0.0007  -4.0512   0.0000   0.2073
  -7.400  -0.6395   0.02009   0.00919  -0.0206  0.0503  0.0002  -3.9226   0.0000   0.2075
  -7.200  -0.6206   0.01981   0.00885  -0.0200  0.0505  0.0002  -3.7950   0.0000   0.2075
  -7.000  -0.6016   0.01953   0.00853  -0.0195  0.0506  0.0002  -3.6690   0.0000   0.2075
  -6.800  -0.5824   0.01927   0.00823  -0.0190  0.0507  0.0002  -3.5444   0.0000   0.2075
  -6.600  -0.5631   0.01902   0.00793  -0.0184  0.0508  0.0002  -3.4209   0.0000   0.2074
  -6.400  -0.5438   0.01877   0.00763  -0.0179  0.0447  0.0000  -3.3020   0.0000   0.2073
  -6.200  -0.5242   0.01854   0.00736  -0.0174  0.0448  0.0000  -3.1806   0.0000   0.2071
  -6.000  -0.5046   0.01832   0.00710  -0.0170  0.0450  0.0000  -3.0604   0.0000   0.2068
  -5.800  -0.4848   0.01811   0.00685  -0.0165  0.0451  0.0000  -2.9415   0.0000   0.2064
  -5.600  -0.4649   0.01791   0.00661  -0.0161  0.0452  0.0000  -2.8238   0.0000   0.2060
  -5.400  -0.4450   0.01771   0.00637  -0.0156  0.0395  0.0002  -2.7100   0.0000   0.2055
  -5.200  -0.4249   0.01753   0.00615  -0.0152  0.0396  0.0002  -2.5941   0.0000   0.2049
  -5.000  -0.4047   0.01736   0.00595  -0.0148  0.0397  0.0002  -2.4797   0.0000   0.2041
  -4.800  -0.3844   0.01719   0.00575  -0.0144  0.0398  0.0002  -2.3710   0.0000   0.2032
  -4.600  -0.3640   0.01704   0.00557  -0.0141  0.0399  0.0002  -2.2682   0.0000   0.2022
  -4.400  -0.3436   0.01688   0.00537  -0.0137  0.0345  0.0009  -2.1709   0.0000   0.2010
  -4.200  -0.3230   0.01675   0.00521  -0.0133  0.0346  0.0009  -2.0694   0.0000   0.1995
  -4.000  -0.3024   0.01662   0.00505  -0.0130  0.0347  0.0009  -1.9694   0.0000   0.1978
  -3.800  -0.2817   0.01650   0.00490  -0.0127  0.0348  0.0009  -1.8708   0.0000   0.1957
  -3.600  -0.2609   0.01639   0.00477  -0.0124  0.0350  0.0009  -1.7736   0.0000   0.1933
  -3.400  -0.2401   0.01628   0.00462  -0.0120  0.0299  0.0020  -1.6808   0.0000   0.1905
  -3.200  -0.2192   0.01619   0.00450  -0.0118  0.0300  0.0020  -1.5860   0.0000   0.1869
  -3.000  -0.1982   0.01610   0.00439  -0.0115  0.0301  0.0021  -1.4960   0.0000   0.1825
  -2.800  -0.1771   0.01602   0.00428  -0.0112  0.0302  0.0021  -1.4112   0.0000   0.1769
  -2.600  -0.1561   0.01594   0.00417  -0.0109  0.0255  0.0037  -1.3306   0.0000   0.1700
  -2.400  -0.1350   0.01587   0.00409  -0.0107  0.0256  0.0037  -1.2481   0.0000   0.1605
  -2.200  -0.1138   0.01582   0.00401  -0.0104  0.0257  0.0038  -1.1670   0.0000   0.1475
  -2.000  -0.0926   0.01577   0.00394  -0.0102  0.0258  0.0038  -1.0869   0.0000   0.1283
  -1.800  -0.0713   0.01572   0.00387  -0.0099  0.0259  0.0038  -1.0081   0.0000   0.0975
  -1.600  -0.0501   0.01568   0.00381  -0.0097  0.0215  0.0061  -0.9397   0.0000   0.0410
  -1.400  -0.0288   0.01565   0.00376  -0.0095  0.0216  0.0061  -0.8695   0.0000  -0.1006
  -1.200  -0.0074   0.01563   0.00372  -0.0092  0.0217  0.0061  -0.8006   0.0000  -1.0570
  -1.000   0.0139   0.01561   0.00368  -0.0090  0.0218  0.0061  -0.7325   0.0000   0.9206
  -0.800   0.0353   0.01560   0.00365  -0.0088  0.0219  0.0061  -0.6969   0.0000   0.5042
  -0.600   0.0566   0.01559   0.00363  -0.0086  0.0179  0.0091  -0.7239   0.0000   0.4019
  -0.400   0.0780   0.01559   0.00362  -0.0084  0.0180  0.0091  -0.7511   0.0000   0.3555
  -0.200   0.0994   0.01560   0.00361  -0.0082  0.0181  0.0091  -0.7785   0.0000   0.3292
   0.000   0.1209   0.01562   0.00361  -0.0080  0.0181  0.0091  -0.8061   0.0000   0.3122
   0.200   0.1423   0.01564   0.00362  -0.0078  0.0182  0.0091  -0.8347   0.0000   0.3003
   0.400   0.1636   0.01566   0.00363  -0.0076  0.0145  0.0129  -0.8637   0.0000   0.2914
   0.600   0.1850   0.01569   0.00365  -0.0074  0.0146  0.0128  -0.8931   0.0000   0.2846
   0.800   0.2063   0.01573   0.00368  -0.0072  0.0147  0.0128  -0.9225   0.0000   0.2793
   1.000   0.2277   0.01577   0.00372  -0.0070  0.0148  0.0128  -0.9522   0.0000   0.2749
   1.200   0.2490   0.01582   0.00376  -0.0068  0.0114  0.0173  -0.9827   0.0000   0.2712
   1.400   0.2703   0.01587   0.00381  -0.0066  0.0114  0.0173  -1.0140   0.0000   0.2681
   1.600   0.2916   0.01593   0.00386  -0.0064  0.0115  0.0172  -1.0455   0.0000   0.2655
   1.800   0.3128   0.01600   0.00392  -0.0062  0.0116  0.0171  -1.0772   0.0000   0.2632
   2.000   0.3341   0.01607   0.00399  -0.0060  0.0116  0.0170  -1.1090   0.0000   0.2611
   2.200   0.3552   0.01614   0.00407  -0.0058  0.0087  0.0222  -1.1415   0.0000   0.2593
   2.400   0.3763   0.01623   0.00415  -0.0056  0.0087  0.0220  -1.1752   0.0000   0.2577
   2.600   0.3974   0.01631   0.00424  -0.0054  0.0088  0.0219  -1.2089   0.0000   0.2562
   2.800   0.4185   0.01640   0.00433  -0.0052  0.0088  0.0218  -1.2429   0.0000   0.2548
   3.000   0.4395   0.01650   0.00443  -0.0049  0.0089  0.0216  -1.2770   0.0000   0.2536
   3.200   0.4603   0.01661   0.00455  -0.0047  0.0063  0.0273  -1.3117   0.0000   0.2524
   3.400   0.4812   0.01672   0.00467  -0.0045  0.0063  0.0271  -1.3476   0.0000   0.2513
   3.600   0.5021   0.01683   0.00479  -0.0042  0.0064  0.0269  -1.3837   0.0000   0.2503
   3.800   0.5228   0.01695   0.00492  -0.0040  0.0064  0.0267  -1.4200   0.0000   0.2493
   4.000   0.5434   0.01708   0.00506  -0.0037  0.0043  0.0330  -1.4563   0.0000   0.2484
   4.200   0.5640   0.01721   0.00521  -0.0035  0.0043  0.0327  -1.4935   0.0000   0.2475
   4.400   0.5845   0.01735   0.00536  -0.0032  0.0043  0.0324  -1.5319   0.0000   0.2467
   4.600   0.6050   0.01750   0.00552  -0.0029  0.0043  0.0322  -1.5703   0.0000   0.2459
   4.800   0.6253   0.01765   0.00568  -0.0027  0.0044  0.0319  -1.6090   0.0000   0.2451
   5.000   0.6455   0.01781   0.00587  -0.0024  0.0027  0.0385  -1.6476   0.0000   0.2443
   5.200   0.6656   0.01797   0.00605  -0.0021  0.0027  0.0382  -1.6876   0.0000   0.2435
   5.400   0.6856   0.01815   0.00624  -0.0017  0.0027  0.0379  -1.7284   0.0000   0.2428
   5.600   0.7055   0.01832   0.00643  -0.0014  0.0027  0.0376  -1.7692   0.0000   0.2421
   5.800   0.7253   0.01851   0.00664  -0.0011  0.0027  0.0373  -1.8102   0.0000   0.2413
   6.000   0.7448   0.01870   0.00687  -0.0007  0.0014  0.0442  -1.8515   0.0000   0.2406
   6.200   0.7643   0.01890   0.00709  -0.0003  0.0014  0.0439  -1.8944   0.0000   0.2399
   6.400   0.7837   0.01911   0.00733   0.0001  0.0014  0.0436  -1.9375   0.0000   0.2391
   6.600   0.8029   0.01933   0.00757   0.0005  0.0014  0.0433  -1.9806   0.0000   0.2384
   6.800   0.8217   0.01956   0.00784   0.0009  0.0005  0.0505  -2.0237   0.0000   0.2377
   7.000   0.8405   0.01979   0.00810   0.0014  0.0005  0.0501  -2.0688   0.0000   0.2369
   7.200   0.8591   0.02003   0.00837   0.0018  0.0005  0.0498  -2.1140   0.0000   0.2362
   7.400   0.8775   0.02028   0.00865   0.0023  0.0005  0.0495  -2.1591   0.0000   0.2354
   7.600   0.8957   0.02054   0.00895   0.0029  0.0005  0.0491  -2.2047   0.0000   0.2347
   7.800   0.9135   0.02082   0.00927   0.0034  0.0001  0.0566  -2.2516   0.0000   0.2339
   8.000   0.9311   0.02110   0.00959   0.0040  0.0001  0.0562  -2.2987   0.0000   0.2331
   8.200   0.9484   0.02139   0.00992   0.0046  0.0001  0.0559  -2.3455   0.0000   0.2322
   8.400   0.9654   0.02169   0.01026   0.0053  0.0001  0.0556  -2.3940   0.0000   0.2314
   8.600   0.9819   0.02201   0.01063   0.0060  0.0000  0.0633  -2.4424   0.0000   0.2305
   8.800   0.9981   0.02234   0.01100   0.0068  0.0000  0.0630  -2.4908   0.0000   0.2296
   9.000   1.0139   0.02268   0.01139   0.0076  0.0000  0.0626  -2.5405   0.0000   0.2286
   9.200   1.0290   0.02304   0.01179   0.0084  0.0000  0.0623  -2.5901   0.0000   0.2276
   9.400   1.0427   0.02340   0.01219   0.0096  0.0000  0.0620  -2.6379   0.0000   0.2263
   9.600   1.0552   0.02377   0.01263   0.0109  0.0003  0.0700  -2.6864   0.0000   0.2249
   9.800   1.0679   0.02418   0.01309   0.0121  0.0003  0.0697  -2.7354   0.0000   0.2236
  10.000   1.0810   0.02463   0.01359   0.0131  0.0004  0.0694  -2.7869   0.0000   0.2224
  10.200   1.0939   0.02512   0.01413   0.0141  0.0004  0.0691  -2.8391   0.0000   0.2214
  10.400   1.1065   0.02564   0.01471   0.0151  0.0004  0.0688  -2.8929   0.0000   0.2203
  10.600   1.1187   0.02620   0.01532   0.0161  0.0004  0.0684  -2.9470   0.0000   0.2193
  10.800   1.1302   0.02680   0.01600   0.0170  0.0010  0.0767  -3.0031   0.0000   0.2182
  11.000   1.1413   0.02744   0.01669   0.0180  0.0010  0.0764  -3.0600   0.0000   0.2172
  11.200   1.1520   0.02813   0.01744   0.0189  0.0011  0.0761  -3.1178   0.0000   0.2162
  11.400   1.1620   0.02887   0.01825   0.0198  0.0011  0.0759  -3.1778   0.0000   0.2153
  11.600   1.1716   0.02967   0.01912   0.0206  0.0011  0.0756  -3.2379   0.0000   0.2143
  11.800   1.1803   0.03056   0.02008   0.0214  0.0020  0.0840  -3.2990   0.0000   0.2134
  12.000   1.1886   0.03151   0.02110   0.0221  0.0021  0.0838  -3.3600   0.0000   0.2126
  12.200   1.1963   0.03255   0.02221   0.0227  0.0021  0.0835  -3.4224   0.0000   0.2118
  12.400   1.2033   0.03368   0.02342   0.0233  0.0021  0.0833  -3.4831   0.0000   0.2111
  12.600   1.2097   0.03492   0.02474   0.0237  0.0021  0.0831  -3.5438   0.0000   0.2104
  12.800   1.2153   0.03627   0.02617   0.0240  0.0022  0.0828  -3.6044   0.0000   0.2098
  13.000   1.2200   0.03778   0.02777   0.0242  0.0034  0.0915  -3.6623   0.0000   0.2093
  13.200   1.2240   0.03942   0.02950   0.0243  0.0034  0.0913  -3.7175   0.0000   0.2089
  13.400   1.2270   0.04123   0.03140   0.0242  0.0034  0.0911  -3.7711   0.0000   0.2086
  13.600   1.2291   0.04322   0.03348   0.0240  0.0034  0.0909  -3.8235   0.0000   0.2084
  13.800   1.2302   0.04540   0.03575   0.0235  0.0035  0.0907  -3.8718   0.0000   0.2083
  14.000   1.2300   0.04780   0.03825   0.0230  0.0035  0.0906  -3.9152   0.0000   0.2083
  14.200   1.2286   0.05043   0.04098   0.0222  0.0035  0.0904  -3.9535   0.0000   0.2084
  14.400   1.2258   0.05332   0.04397   0.0213  0.0035  0.0903  -3.9860   0.0000   0.2086
  14.600   1.2215   0.05647   0.04723   0.0202  0.0035  0.0902  -4.0117   0.0000   0.2090
  14.800   1.2153   0.05996   0.05084   0.0189  0.0050  0.0991  -4.0302   0.0000   0.2095
  15.000   1.2078   0.06371   0.05469   0.0175  0.0050  0.0990  -4.0442   0.0000   0.2101
  15.200   1.1987   0.06775   0.05885   0.0159  0.0050  0.0990  -4.0501   0.0000   0.2108
  15.400   1.1882   0.07208   0.06330   0.0142  0.0050  0.0989  -4.0481   0.0000   0.2117
  15.600   1.1764   0.07669   0.06802   0.0123  0.0050  0.0989  -4.0392   0.0000   0.2127
  15.800   1.1635   0.08152   0.07297   0.0103  0.0050  0.0989  -4.0235   0.0000   0.2138
  16.000   1.1499   0.08652   0.07809   0.0082  0.0050  0.0989  -4.0026   0.0000   0.2151
  16.200   1.1361   0.09164   0.08331   0.0061  0.0050  0.0989  -3.9786   0.0000   0.2164
  16.400   1.1223   0.09682   0.08860   0.0039  0.0050  0.0990  -3.9521   0.0000   0.2179
  16.600   1.1089   0.10196   0.09384   0.0017  0.0050  0.0990  -3.9256   0.0000   0.2194
  16.800   1.0961   0.10707   0.09906  -0.0005  0.0050  0.0990  -3.8996   0.0000   0.2209
  17.000   1.0844   0.11208   0.10416  -0.0027  0.0050  0.0990  -3.8761   0.0000   0.2226
  17.200   1.0737   0.11696   0.10913  -0.0048  0.0049  0.0990  -3.8552   0.0000   0.2242
  17.400   1.0638   0.12172   0.11398  -0.0070  0.0049  0.0990  -3.8365   0.0000   0.2259
  17.600   1.0550   0.12637   0.11870  -0.0091  0.0049  0.0990  -3.8208   0.0000   0.2276
  17.800   1.0472   0.13088   0.12329  -0.0112  0.0049  0.0990  -3.8085   0.0000   0.2293
  18.000   1.0406   0.13524   0.12773  -0.0133  0.0049  0.0990  -3.7996   0.0000   0.2310
  18.200   1.0344   0.13955   0.13211  -0.0155  0.0049  0.0990  -3.7916   0.0000   0.2327
  18.400   1.0292   0.14371   0.13635  -0.0176  0.0049  0.0989  -3.7867   0.0000   0.2344
  18.600   1.0248   0.14774   0.14044  -0.0196  0.0049  0.0989  -3.7878   0.0000   0.2361
  18.800   1.0207   0.15178   0.14455  -0.0217  0.0049  0.0988  -3.7882   0.0000   0.2379
  19.000   1.0176   0.15565   0.14849  -0.0238  0.0049  0.0988  -3.7931   0.0000   0.2396
  19.200   1.0148   0.15954   0.15243  -0.0259  0.0049  0.0987  -3.7972   0.0000   0.2414
  19.400   1.0127   0.16327   0.15623  -0.0280  0.0049  0.0987  -3.8049   0.0000   0.2431
  19.600   1.0108   0.16705   0.16007  -0.0302  0.0049  0.0986  -3.8109   0.0000   0.2448
  19.800   1.0092   0.17076   0.16384  -0.0323  0.0066  0.1077  -3.8181   0.0000   0.2466
  20.000   1.0079   0.17442   0.16757  -0.0345  0.0066  0.1076  -3.8252   0.0000   0.2484
  20.200   1.0072   0.17798   0.17118  -0.0366  0.0066  0.1075  -3.8347   0.0000   0.2501
  20.400   1.0065   0.18158   0.17484  -0.0388  0.0067  0.1075  -3.8422   0.0000   0.2519
  20.600   1.0064   0.18506   0.17838  -0.0409  0.0067  0.1074  -3.8529   0.0000   0.2537
  20.800   1.0061   0.18865   0.18202  -0.0432  0.0067  0.1074  -3.8593   0.0000   0.2555
  21.000   1.0065   0.19210   0.18553  -0.0454  0.0067  0.1073  -3.8693   0.0000   0.2573
  21.200   1.0067   0.19562   0.18910  -0.0476  0.0067  0.1072  -3.8763   0.0000   0.2591
  21.400   1.0075   0.19902   0.19256  -0.0498  0.0067  0.1072  -3.8886   0.0000   0.2608
  21.600   1.0084   0.20244   0.19603  -0.0521  0.0067  0.1071  -3.9013   0.0000   0.2626
  21.800   1.0095   0.20582   0.19946  -0.0543  0.0067  0.1070  -3.9145   0.0000   0.2644
  22.000   1.0108   0.20914   0.20283  -0.0566  0.0067  0.1069  -3.9287   0.0000   0.2661
  22.200   1.0120   0.21255   0.20630  -0.0589  0.0086  0.1161  -3.9394   0.0000   0.2679
  22.400   1.0137   0.21583   0.20963  -0.0611  0.0087  0.1160  -3.9529   0.0000   0.2696
  22.600   1.0153   0.21915   0.21300  -0.0634  0.0087  0.1160  -3.9641   0.0000   0.2713
  22.800   1.0172   0.22242   0.21632  -0.0657  0.0087  0.1159  -3.9756   0.0000   0.2730
  23.000   1.0192   0.22566   0.21961  -0.0680  0.0087  0.1158  -3.9871   0.0000   0.2747
  23.200   1.0211   0.22893   0.22293  -0.0703  0.0087  0.1158  -3.9955   0.0000   0.2764
  23.400   1.0233   0.23213   0.22618  -0.0726  0.0087  0.1157  -4.0056   0.0000   0.2781
  23.600   1.0255   0.23536   0.22946  -0.0750  0.0087  0.1156  -4.0131   0.0000   0.2797
  23.800   1.0278   0.23858   0.23273  -0.0773  0.0087  0.1156  -4.0202   0.0000   0.2814
  24.000   1.0303   0.24177   0.23596  -0.0796  0.0087  0.1155  -4.0272   0.0000   0.2830
  24.200   1.0326   0.24503   0.23928  -0.0820  0.0109  0.1248  -4.0299   0.0000   0.2847
  24.400   1.0352   0.24821   0.24250  -0.0844  0.0109  0.1247  -4.0348   0.0000   0.2864
  24.600   1.0378   0.25143   0.24577  -0.0868  0.0109  0.1247  -4.0404   0.0000   0.2880
  24.800   1.0405   0.25465   0.24904  -0.0892  0.0109  0.1246  -4.0465   0.0000   0.2897
  25.000   1.0433   0.25783   0.25226  -0.0916  0.0109  0.1246  -4.0527   0.0000   0.2913


