xflr5 v6.47

 Calculated polar for: NACA 23015

 1 1 Reynolds number fixed          Mach number fixed         

 xtrf =   1.000 (top)        1.000 (bottom)
 Mach =   0.000     Re =     0.500 e 6     Ncrit =   0.100

  alpha     CL        CD       CDp       Cm    Top Xtr Bot Xtr   Cpmin    Chinge    XCp    
 ------- -------- --------- --------- -------- ------- ------- -------- --------- ---------
 -10.000  -0.8917   0.02176   0.01242  -0.0267  0.0576  0.0057  -5.9091   0.0000   0.2076
  -9.800  -0.8748   0.02137   0.01198  -0.0259  0.0576  0.0057  -5.7571   0.0000   0.2081
  -9.600  -0.8576   0.02100   0.01155  -0.0252  0.0577  0.0057  -5.6053   0.0000   0.2086
  -9.400  -0.8401   0.02064   0.01113  -0.0244  0.0513  0.0039  -5.4538   0.0000   0.2091
  -9.200  -0.8224   0.02029   0.01073  -0.0238  0.0514  0.0039  -5.3028   0.0000   0.2095
  -9.000  -0.8045   0.01995   0.01035  -0.0231  0.0515  0.0039  -5.1525   0.0000   0.2098
  -8.800  -0.7863   0.01963   0.00998  -0.0224  0.0516  0.0038  -5.0029   0.0000   0.2101
  -8.600  -0.7679   0.01932   0.00962  -0.0218  0.0516  0.0038  -4.8541   0.0000   0.2104
  -8.400  -0.7494   0.01902   0.00927  -0.0212  0.0456  0.0024  -4.7062   0.0000   0.2107
  -8.200  -0.7306   0.01873   0.00894  -0.0207  0.0457  0.0024  -4.5593   0.0000   0.2109
  -8.000  -0.7117   0.01846   0.00862  -0.0201  0.0458  0.0023  -4.4135   0.0000   0.2111
  -7.800  -0.6926   0.01819   0.00832  -0.0196  0.0458  0.0023  -4.2744   0.0000   0.2113
  -7.600  -0.6734   0.01793   0.00802  -0.0190  0.0459  0.0023  -4.1401   0.0000   0.2114
  -7.400  -0.6540   0.01768   0.00773  -0.0185  0.0402  0.0012  -4.0069   0.0000   0.2114
  -7.200  -0.6345   0.01745   0.00745  -0.0180  0.0403  0.0012  -3.8747   0.0000   0.2115
  -7.000  -0.6148   0.01722   0.00719  -0.0176  0.0404  0.0012  -3.7437   0.0000   0.2114
  -6.800  -0.5951   0.01700   0.00694  -0.0171  0.0405  0.0012  -3.6139   0.0000   0.2114
  -6.600  -0.5752   0.01679   0.00669  -0.0167  0.0405  0.0012  -3.4853   0.0000   0.2112
  -6.400  -0.5552   0.01659   0.00645  -0.0163  0.0352  0.0004  -3.3580   0.0000   0.2111
  -6.200  -0.5350   0.01640   0.00623  -0.0159  0.0353  0.0004  -3.2321   0.0000   0.2108
  -6.000  -0.5148   0.01622   0.00601  -0.0155  0.0353  0.0004  -3.1075   0.0000   0.2105
  -5.800  -0.4944   0.01604   0.00581  -0.0151  0.0354  0.0004  -2.9843   0.0000   0.2101
  -5.600  -0.4740   0.01587   0.00561  -0.0147  0.0355  0.0004  -2.8625   0.0000   0.2097
  -5.400  -0.4535   0.01571   0.00542  -0.0144  0.0305  0.0001  -2.7416   0.0000   0.2091
  -5.200  -0.4329   0.01556   0.00524  -0.0140  0.0305  0.0000  -2.6227   0.0000   0.2085
  -5.000  -0.4121   0.01542   0.00507  -0.0137  0.0306  0.0000  -2.5053   0.0000   0.2077
  -4.800  -0.3913   0.01528   0.00490  -0.0134  0.0307  0.0000  -2.3977   0.0000   0.2067
  -4.600  -0.3705   0.01515   0.00475  -0.0131  0.0308  0.0000  -2.2917   0.0000   0.2057
  -4.400  -0.3495   0.01503   0.00459  -0.0128  0.0261  0.0000  -2.1865   0.0000   0.2044
  -4.200  -0.3285   0.01492   0.00446  -0.0125  0.0262  0.0001  -2.0831   0.0000   0.2029
  -4.000  -0.3074   0.01481   0.00433  -0.0122  0.0262  0.0001  -1.9812   0.0000   0.2012
  -3.800  -0.2862   0.01471   0.00420  -0.0120  0.0263  0.0001  -1.8807   0.0000   0.1991
  -3.600  -0.2650   0.01461   0.00409  -0.0117  0.0264  0.0001  -1.7816   0.0000   0.1967
  -3.400  -0.2438   0.01452   0.00397  -0.0114  0.0221  0.0005  -1.6827   0.0000   0.1938
  -3.200  -0.2225   0.01444   0.00387  -0.0112  0.0221  0.0005  -1.5874   0.0000   0.1902
  -3.000  -0.2011   0.01437   0.00378  -0.0110  0.0222  0.0005  -1.4979   0.0000   0.1858
  -2.800  -0.1796   0.01430   0.00369  -0.0108  0.0223  0.0005  -1.4120   0.0000   0.1803
  -2.600  -0.1582   0.01423   0.00360  -0.0106  0.0183  0.0013  -1.3263   0.0000   0.1733
  -2.400  -0.1367   0.01418   0.00353  -0.0104  0.0183  0.0013  -1.2430   0.0000   0.1638
  -2.200  -0.1151   0.01413   0.00347  -0.0102  0.0184  0.0013  -1.1611   0.0000   0.1508
  -2.000  -0.0936   0.01408   0.00341  -0.0100  0.0185  0.0013  -1.0811   0.0000   0.1316
  -1.800  -0.0720   0.01404   0.00336  -0.0098  0.0185  0.0013  -1.0032   0.0000   0.1008
  -1.600  -0.0504   0.01401   0.00330  -0.0096  0.0149  0.0026  -0.9306   0.0000   0.0437
  -1.400  -0.0287   0.01398   0.00326  -0.0094  0.0150  0.0027  -0.8602   0.0000  -0.1004
  -1.200  -0.0070   0.01396   0.00323  -0.0093  0.0150  0.0027  -0.7909   0.0000  -1.1343
  -1.000   0.0147   0.01394   0.00320  -0.0091  0.0151  0.0027  -0.7230   0.0000   0.8920
  -0.800   0.0364   0.01393   0.00318  -0.0089  0.0151  0.0027  -0.6978   0.0000   0.5001
  -0.600   0.0580   0.01392   0.00316  -0.0088  0.0118  0.0045  -0.7250   0.0000   0.4011
  -0.400   0.0798   0.01392   0.00315  -0.0086  0.0119  0.0045  -0.7524   0.0000   0.3560
  -0.200   0.1015   0.01393   0.00315  -0.0085  0.0119  0.0045  -0.7801   0.0000   0.3302
   0.000   0.1232   0.01394   0.00315  -0.0083  0.0120  0.0046  -0.8079   0.0000   0.3135
   0.200   0.1449   0.01395   0.00316  -0.0082  0.0121  0.0046  -0.8370   0.0000   0.3018
   0.400   0.1666   0.01397   0.00317  -0.0080  0.0091  0.0070  -0.8664   0.0000   0.2932
   0.600   0.1883   0.01400   0.00319  -0.0079  0.0091  0.0070  -0.8960   0.0000   0.2865
   0.800   0.2100   0.01403   0.00321  -0.0077  0.0092  0.0070  -0.9258   0.0000   0.2812
   1.000   0.2317   0.01406   0.00325  -0.0076  0.0092  0.0070  -0.9557   0.0000   0.2769
   1.200   0.2533   0.01410   0.00328  -0.0074  0.0066  0.0101  -0.9869   0.0000   0.2733
   1.400   0.2749   0.01415   0.00332  -0.0073  0.0067  0.0101  -1.0185   0.0000   0.2702
   1.600   0.2965   0.01420   0.00337  -0.0071  0.0067  0.0101  -1.0503   0.0000   0.2676
   1.800   0.3181   0.01425   0.00343  -0.0070  0.0067  0.0101  -1.0823   0.0000   0.2654
   2.000   0.3397   0.01431   0.00349  -0.0068  0.0068  0.0100  -1.1145   0.0000   0.2634
   2.200   0.3612   0.01438   0.00355  -0.0067  0.0046  0.0137  -1.1478   0.0000   0.2615
   2.400   0.3827   0.01445   0.00362  -0.0065  0.0046  0.0137  -1.1818   0.0000   0.2599
   2.600   0.4041   0.01452   0.00370  -0.0064  0.0046  0.0136  -1.2159   0.0000   0.2585
   2.800   0.4255   0.01460   0.00378  -0.0062  0.0047  0.0135  -1.2503   0.0000   0.2572
   3.000   0.4469   0.01469   0.00387  -0.0060  0.0047  0.0135  -1.2847   0.0000   0.2559
   3.200   0.4682   0.01478   0.00397  -0.0059  0.0029  0.0177  -1.3204   0.0000   0.2548
   3.400   0.4894   0.01487   0.00407  -0.0057  0.0029  0.0176  -1.3568   0.0000   0.2537
   3.600   0.5106   0.01497   0.00418  -0.0055  0.0029  0.0175  -1.3933   0.0000   0.2527
   3.800   0.5318   0.01508   0.00429  -0.0053  0.0030  0.0174  -1.4301   0.0000   0.2518
   4.000   0.5528   0.01519   0.00441  -0.0051  0.0016  0.0221  -1.4669   0.0000   0.2509
   4.200   0.5738   0.01531   0.00454  -0.0049  0.0016  0.0220  -1.5052   0.0000   0.2500
   4.400   0.5947   0.01543   0.00467  -0.0047  0.0016  0.0219  -1.5441   0.0000   0.2492
   4.600   0.6156   0.01555   0.00481  -0.0045  0.0016  0.0217  -1.5831   0.0000   0.2484
   4.800   0.6364   0.01569   0.00495  -0.0043  0.0016  0.0216  -1.6223   0.0000   0.2476
   5.000   0.6570   0.01583   0.00511  -0.0040  0.0007  0.0268  -1.6617   0.0000   0.2469
   5.200   0.6776   0.01597   0.00526  -0.0038  0.0007  0.0266  -1.7029   0.0000   0.2461
   5.400   0.6981   0.01612   0.00543  -0.0035  0.0007  0.0264  -1.7443   0.0000   0.2454
   5.600   0.7185   0.01628   0.00560  -0.0033  0.0007  0.0263  -1.7859   0.0000   0.2447
   5.800   0.7388   0.01644   0.00579  -0.0030  0.0002  0.0318  -1.8274   0.0000   0.2440
   6.000   0.7589   0.01661   0.00597  -0.0027  0.0002  0.0316  -1.8704   0.0000   0.2433
   6.200   0.7790   0.01678   0.00617  -0.0024  0.0002  0.0314  -1.9142   0.0000   0.2426
   6.400   0.7989   0.01696   0.00637  -0.0021  0.0002  0.0313  -1.9581   0.0000   0.2419
   6.600   0.8186   0.01715   0.00658  -0.0018  0.0002  0.0311  -2.0021   0.0000   0.2412
   6.800   0.8382   0.01735   0.00681  -0.0014  0.0000  0.0370  -2.0472   0.0000   0.2405
   7.000   0.8577   0.01755   0.00703  -0.0010  0.0000  0.0368  -2.0934   0.0000   0.2398
   7.200   0.8770   0.01777   0.00727  -0.0006  0.0000  0.0366  -2.1396   0.0000   0.2391
   7.400   0.8961   0.01798   0.00751  -0.0002  0.0000  0.0364  -2.1859   0.0000   0.2384
   7.600   0.9150   0.01821   0.00777   0.0002  0.0002  0.0426  -2.2338   0.0000   0.2377
   7.800   0.9336   0.01845   0.00804   0.0007  0.0002  0.0424  -2.2823   0.0000   0.2370
   8.000   0.9521   0.01869   0.00831   0.0012  0.0002  0.0422  -2.3307   0.0000   0.2362
   8.200   0.9703   0.01895   0.00859   0.0017  0.0002  0.0420  -2.3800   0.0000   0.2355
   8.400   0.9883   0.01921   0.00888   0.0022  0.0002  0.0417  -2.4307   0.0000   0.2347
   8.600   1.0060   0.01948   0.00920   0.0028  0.0008  0.0483  -2.4811   0.0000   0.2339
   8.800   1.0233   0.01977   0.00952   0.0034  0.0008  0.0481  -2.5324   0.0000   0.2331
   9.000   1.0403   0.02006   0.00984   0.0041  0.0008  0.0479  -2.5851   0.0000   0.2322
   9.200   1.0570   0.02037   0.01018   0.0048  0.0008  0.0477  -2.6374   0.0000   0.2313
   9.400   1.0732   0.02069   0.01055   0.0056  0.0017  0.0545  -2.6915   0.0000   0.2304
   9.600   1.0889   0.02102   0.01092   0.0064  0.0017  0.0543  -2.7457   0.0000   0.2294
   9.800   1.1033   0.02135   0.01129   0.0074  0.0018  0.0541  -2.7996   0.0000   0.2283
  10.000   1.1161   0.02169   0.01167   0.0087  0.0018  0.0539  -2.8524   0.0000   0.2269
  10.200   1.1288   0.02206   0.01208   0.0100  0.0018  0.0537  -2.9070   0.0000   0.2255
  10.400   1.1420   0.02248   0.01255   0.0111  0.0030  0.0609  -2.9643   0.0000   0.2243
  10.600   1.1553   0.02292   0.01304   0.0122  0.0030  0.0606  -3.0244   0.0000   0.2232
  10.800   1.1684   0.02340   0.01357   0.0132  0.0030  0.0604  -3.0865   0.0000   0.2222
  11.000   1.1810   0.02391   0.01412   0.0141  0.0031  0.0602  -3.1496   0.0000   0.2211
  11.200   1.1930   0.02446   0.01472   0.0151  0.0031  0.0601  -3.2155   0.0000   0.2201
  11.400   1.2046   0.02504   0.01535   0.0161  0.0031  0.0598  -3.2828   0.0000   0.2191
  11.600   1.2157   0.02567   0.01605   0.0171  0.0046  0.0673  -3.3508   0.0000   0.2180
  11.800   1.2263   0.02635   0.01677   0.0180  0.0046  0.0671  -3.4211   0.0000   0.2170
  12.000   1.2363   0.02708   0.01756   0.0189  0.0047  0.0669  -3.4916   0.0000   0.2161
  12.200   1.2458   0.02787   0.01841   0.0198  0.0047  0.0667  -3.5619   0.0000   0.2151
  12.400   1.2546   0.02874   0.01933   0.0206  0.0047  0.0666  -3.6342   0.0000   0.2142
  12.600   1.2629   0.02968   0.02035   0.0213  0.0065  0.0743  -3.7051   0.0000   0.2134
  12.800   1.2706   0.03071   0.02144   0.0219  0.0065  0.0741  -3.7744   0.0000   0.2126
  13.000   1.2776   0.03183   0.02263   0.0225  0.0066  0.0739  -3.8453   0.0000   0.2118
  13.200   1.2839   0.03307   0.02393   0.0230  0.0066  0.0738  -3.9154   0.0000   0.2112
  13.400   1.2894   0.03442   0.02536   0.0233  0.0066  0.0736  -3.9829   0.0000   0.2105
  13.600   1.2942   0.03592   0.02693   0.0235  0.0067  0.0735  -4.0479   0.0000   0.2100
  13.800   1.2981   0.03757   0.02866   0.0236  0.0087  0.0814  -4.1097   0.0000   0.2096
  14.000   1.3010   0.03938   0.03054   0.0235  0.0087  0.0813  -4.1693   0.0000   0.2092
  14.200   1.3030   0.04137   0.03262   0.0233  0.0087  0.0812  -4.2282   0.0000   0.2090
  14.400   1.3039   0.04357   0.03490   0.0229  0.0088  0.0811  -4.2826   0.0000   0.2088
  14.600   1.3033   0.04599   0.03742   0.0224  0.0088  0.0810  -4.3312   0.0000   0.2088
  14.800   1.3015   0.04868   0.04019   0.0216  0.0088  0.0809  -4.3739   0.0000   0.2088
  15.000   1.2981   0.05163   0.04324   0.0207  0.0088  0.0808  -4.4098   0.0000   0.2090
  15.200   1.2930   0.05488   0.04658   0.0196  0.0088  0.0807  -4.4378   0.0000   0.2093
  15.400   1.2860   0.05844   0.05025   0.0183  0.0089  0.0807  -4.4573   0.0000   0.2097
  15.600   1.2773   0.06235   0.05426   0.0169  0.0089  0.0806  -4.4681   0.0000   0.2102
  15.800   1.2667   0.06659   0.05861   0.0153  0.0089  0.0806  -4.4693   0.0000   0.2109
  16.000   1.2541   0.07118   0.06331   0.0135  0.0111  0.0889  -4.4604   0.0000   0.2117
  16.200   1.2401   0.07607   0.06832   0.0115  0.0111  0.0889  -4.4433   0.0000   0.2127
  16.400   1.2248   0.08122   0.07358   0.0094  0.0111  0.0889  -4.4183   0.0000   0.2138
  16.600   1.2086   0.08656   0.07902   0.0073  0.0111  0.0889  -4.3870   0.0000   0.2150
  16.800   1.1923   0.09200   0.08457   0.0051  0.0111  0.0889  -4.3536   0.0000   0.2163
  17.000   1.1766   0.09740   0.09007   0.0028  0.0111  0.0890  -4.3207   0.0000   0.2177
  17.200   1.1611   0.10278   0.09555   0.0006  0.0111  0.0890  -4.2870   0.0000   0.2191
  17.400   1.1472   0.10800   0.10085  -0.0016  0.0110  0.0890  -4.2582   0.0000   0.2206
  17.600   1.1347   0.11306   0.10600  -0.0038  0.0110  0.0890  -4.2338   0.0000   0.2221
  17.800   1.1233   0.11795   0.11097  -0.0060  0.0110  0.0890  -4.2134   0.0000   0.2237
  18.000   1.1131   0.12268   0.11578  -0.0081  0.0110  0.0890  -4.1967   0.0000   0.2252
  18.200   1.1040   0.12727   0.12044  -0.0102  0.0110  0.0890  -4.1843   0.0000   0.2268
  18.400   1.0963   0.13168   0.12492  -0.0123  0.0110  0.0890  -4.1767   0.0000   0.2283
  18.600   1.0900   0.13589   0.12919  -0.0143  0.0110  0.0890  -4.1751   0.0000   0.2298
  18.800   1.0841   0.14006   0.13343  -0.0164  0.0110  0.0889  -4.1737   0.0000   0.2314
  19.000   1.0791   0.14407   0.13750  -0.0184  0.0110  0.0889  -4.1761   0.0000   0.2329
  19.200   1.0750   0.14796   0.14144  -0.0204  0.0110  0.0889  -4.1818   0.0000   0.2344
  19.400   1.0713   0.15181   0.14535  -0.0225  0.0110  0.0888  -4.1881   0.0000   0.2360
  19.600   1.0686   0.15552   0.14911  -0.0245  0.0110  0.0888  -4.1988   0.0000   0.2375
  19.800   1.0660   0.15923   0.15288  -0.0265  0.0110  0.0888  -4.2085   0.0000   0.2390
  20.000   1.0642   0.16281   0.15652  -0.0286  0.0111  0.0887  -4.2220   0.0000   0.2405
  20.200   1.0628   0.16635   0.16011  -0.0306  0.0111  0.0887  -4.2359   0.0000   0.2421
  20.400   1.0615   0.16989   0.16370  -0.0327  0.0111  0.0886  -4.2496   0.0000   0.2436
  20.600   1.0610   0.17326   0.16712  -0.0347  0.0111  0.0885  -4.2672   0.0000   0.2451
  20.800   1.0600   0.17678   0.17069  -0.0369  0.0136  0.0970  -4.2828   0.0000   0.2467
  21.000   1.0600   0.18008   0.17405  -0.0389  0.0136  0.0969  -4.3055   0.0000   0.2482
  21.200   1.0597   0.18348   0.17749  -0.0411  0.0137  0.0969  -4.3244   0.0000   0.2498
  21.400   1.0599   0.18680   0.18087  -0.0432  0.0137  0.0968  -4.3455   0.0000   0.2514
  21.600   1.0605   0.19005   0.18416  -0.0453  0.0137  0.0968  -4.3686   0.0000   0.2529
  21.800   1.0608   0.19341   0.18757  -0.0476  0.0137  0.0967  -4.3870   0.0000   0.2545
  22.000   1.0617   0.19665   0.19085  -0.0497  0.0137  0.0967  -4.4094   0.0000   0.2561
  22.200   1.0625   0.19990   0.19415  -0.0519  0.0137  0.0966  -4.4302   0.0000   0.2576
  22.400   1.0633   0.20322   0.19752  -0.0542  0.0137  0.0966  -4.4480   0.0000   0.2593
  22.600   1.0646   0.20640   0.20074  -0.0564  0.0137  0.0965  -4.4700   0.0000   0.2608
  22.800   1.0656   0.20970   0.20409  -0.0587  0.0166  0.1051  -4.4868   0.0000   0.2625
  23.000   1.0669   0.21294   0.20738  -0.0610  0.0166  0.1051  -4.5048   0.0000   0.2641
  23.200   1.0685   0.21608   0.21056  -0.0633  0.0166  0.1050  -4.5254   0.0000   0.2656
  23.400   1.0696   0.21941   0.21394  -0.0657  0.0166  0.1049  -4.5381   0.0000   0.2673
  23.600   1.0712   0.22260   0.21717  -0.0680  0.0166  0.1049  -4.5549   0.0000   0.2689
  23.800   1.0727   0.22583   0.22045  -0.0704  0.0166  0.1048  -4.5684   0.0000   0.2706
  24.000   1.0739   0.22914   0.22381  -0.0728  0.0166  0.1048  -4.5776   0.0000   0.2723
  24.200   1.0757   0.23231   0.22702  -0.0752  0.0167  0.1048  -4.5922   0.0000   0.2740
  24.400   1.0770   0.23564   0.23040  -0.0777  0.0167  0.1047  -4.6028   0.0000   0.2757
  24.600   1.0786   0.23888   0.23368  -0.0802  0.0167  0.1047  -4.6164   0.0000   0.2774
  24.800   1.0804   0.24212   0.23697  -0.0826  0.0167  0.1046  -4.6288   0.0000   0.2791
  25.000   1.0817   0.24550   0.24040  -0.0852  0.0198  0.1134  -4.6336   0.0000   0.2809


