xflr5 v6.47

 Calculated polar for: NACA 23015

 1 1 Reynolds number fixed          Mach number fixed         

 xtrf =   1.000 (top)        1.000 (bottom)
 Mach =   0.000     Re =     0.200 e 6     Ncrit =   0.100

  alpha     CL        CD       CDp       Cm    Top Xtr Bot Xtr   Cpmin    Chinge    XCp    
 ------- -------- --------- --------- -------- ------- ------- -------- --------- ---------
 -10.000  -0.8467   0.02836   0.01763  -0.0319  0.0829  0.0011  -5.5970   0.0000   0.1997
  -9.800  -0.8316   0.02776   0.01694  -0.0310  0.0831  0.0011  -5.4630   0.0000   0.2003
  -9.600  -0.8164   0.02717   0.01625  -0.0301  0.0751  0.0004  -5.3306   0.0000   0.2009
  -9.400  -0.8005   0.02663   0.01563  -0.0293  0.0753  0.0004  -5.1940   0.0000   0.2014
  -9.200  -0.7843   0.02611   0.01503  -0.0285  0.0754  0.0004  -5.0571   0.0000   0.2018
  -9.000  -0.7678   0.02562   0.01446  -0.0277  0.0756  0.0004  -4.9201   0.0000   0.2022
  -8.800  -0.7510   0.02515   0.01390  -0.0270  0.0757  0.0004  -4.7833   0.0000   0.2026
  -8.600  -0.7342   0.02466   0.01333  -0.0262  0.0681  0.0000  -4.6515   0.0000   0.2030
  -8.400  -0.7170   0.02422   0.01282  -0.0255  0.0683  0.0000  -4.5151   0.0000   0.2033
  -8.200  -0.6995   0.02381   0.01234  -0.0248  0.0685  0.0000  -4.3792   0.0000   0.2035
  -8.000  -0.6818   0.02342   0.01188  -0.0241  0.0686  0.0000  -4.2472   0.0000   0.2037
  -7.800  -0.6639   0.02304   0.01144  -0.0235  0.0688  0.0000  -4.1210   0.0000   0.2039
  -7.600  -0.6458   0.02268   0.01101  -0.0229  0.0690  0.0000  -3.9955   0.0000   0.2040
  -7.400  -0.6278   0.02230   0.01057  -0.0222  0.0618  0.0001  -3.8749   0.0000   0.2042
  -7.200  -0.6094   0.02197   0.01018  -0.0216  0.0619  0.0001  -3.7508   0.0000   0.2043
  -7.000  -0.5909   0.02165   0.00980  -0.0210  0.0621  0.0001  -3.6275   0.0000   0.2043
  -6.800  -0.5722   0.02134   0.00944  -0.0204  0.0622  0.0001  -3.5052   0.0000   0.2043
  -6.600  -0.5534   0.02105   0.00910  -0.0198  0.0624  0.0001  -3.3839   0.0000   0.2042
  -6.400  -0.5346   0.02075   0.00874  -0.0193  0.0556  0.0005  -3.2628   0.0000   0.2041
  -6.200  -0.5155   0.02049   0.00842  -0.0187  0.0557  0.0005  -3.1420   0.0000   0.2039
  -6.000  -0.4963   0.02023   0.00812  -0.0182  0.0559  0.0005  -3.0223   0.0000   0.2036
  -5.800  -0.4770   0.01999   0.00784  -0.0177  0.0560  0.0005  -2.9039   0.0000   0.2033
  -5.600  -0.4575   0.01977   0.00756  -0.0172  0.0562  0.0006  -2.7868   0.0000   0.2029
  -5.400  -0.4382   0.01952   0.00727  -0.0167  0.0497  0.0014  -2.6708   0.0000   0.2025
  -5.200  -0.4185   0.01932   0.00702  -0.0162  0.0499  0.0015  -2.5642   0.0000   0.2019
  -5.000  -0.3987   0.01913   0.00679  -0.0158  0.0500  0.0015  -2.4583   0.0000   0.2011
  -4.800  -0.3788   0.01895   0.00656  -0.0153  0.0502  0.0015  -2.3537   0.0000   0.2002
  -4.600  -0.3588   0.01877   0.00635  -0.0149  0.0504  0.0015  -2.2503   0.0000   0.1992
  -4.400  -0.3389   0.01859   0.00612  -0.0145  0.0442  0.0029  -2.1473   0.0000   0.1981
  -4.200  -0.3187   0.01844   0.00593  -0.0141  0.0443  0.0029  -2.0467   0.0000   0.1966
  -4.000  -0.2984   0.01830   0.00575  -0.0137  0.0445  0.0030  -1.9474   0.0000   0.1949
  -3.800  -0.2780   0.01817   0.00558  -0.0133  0.0447  0.0030  -1.8496   0.0000   0.1929
  -3.600  -0.2576   0.01804   0.00542  -0.0129  0.0448  0.0030  -1.7533   0.0000   0.1904
  -3.400  -0.2372   0.01792   0.00526  -0.0125  0.0390  0.0050  -1.6584   0.0000   0.1876
  -3.200  -0.2166   0.01782   0.00512  -0.0122  0.0392  0.0051  -1.5705   0.0000   0.1840
  -3.000  -0.1959   0.01772   0.00499  -0.0119  0.0393  0.0051  -1.4845   0.0000   0.1796
  -2.800  -0.1752   0.01763   0.00487  -0.0116  0.0395  0.0051  -1.3999   0.0000   0.1740
  -2.600  -0.1546   0.01754   0.00474  -0.0112  0.0340  0.0079  -1.3164   0.0000   0.1671
  -2.400  -0.1337   0.01748   0.00464  -0.0109  0.0342  0.0079  -1.2347   0.0000   0.1576
  -2.200  -0.1128   0.01742   0.00455  -0.0106  0.0343  0.0079  -1.1543   0.0000   0.1445
  -2.000  -0.0918   0.01736   0.00447  -0.0103  0.0345  0.0079  -1.0755   0.0000   0.1252
  -1.800  -0.0708   0.01732   0.00439  -0.0101  0.0346  0.0080  -1.0031   0.0000   0.0944
  -1.600  -0.0500   0.01727   0.00432  -0.0098  0.0295  0.0116  -0.9317   0.0000   0.0385
  -1.400  -0.0289   0.01724   0.00426  -0.0095  0.0296  0.0116  -0.8620   0.0000  -0.1012
  -1.200  -0.0078   0.01722   0.00421  -0.0092  0.0298  0.0116  -0.7936   0.0000  -0.9994
  -1.000   0.0133   0.01720   0.00417  -0.0090  0.0299  0.0116  -0.7267   0.0000   0.9493
  -0.800   0.0345   0.01720   0.00414  -0.0087  0.0301  0.0116  -0.6952   0.0000   0.5086
  -0.600   0.0554   0.01718   0.00411  -0.0085  0.0252  0.0161  -0.7220   0.0000   0.4030
  -0.400   0.0766   0.01719   0.00409  -0.0082  0.0254  0.0161  -0.7490   0.0000   0.3555
  -0.200   0.0977   0.01720   0.00408  -0.0080  0.0255  0.0161  -0.7762   0.0000   0.3285
   0.000   0.1189   0.01722   0.00408  -0.0077  0.0257  0.0160  -0.8035   0.0000   0.3112
   0.200   0.1401   0.01725   0.00409  -0.0075  0.0258  0.0160  -0.8315   0.0000   0.2991
   0.400   0.1610   0.01727   0.00411  -0.0072  0.0213  0.0215  -0.8604   0.0000   0.2900
   0.600   0.1822   0.01731   0.00413  -0.0070  0.0214  0.0214  -0.8894   0.0000   0.2831
   0.800   0.2033   0.01735   0.00416  -0.0068  0.0215  0.0212  -0.9186   0.0000   0.2777
   1.000   0.2244   0.01740   0.00420  -0.0065  0.0217  0.0211  -0.9480   0.0000   0.2733
   1.200   0.2453   0.01745   0.00425  -0.0063  0.0175  0.0275  -0.9779   0.0000   0.2695
   1.400   0.2664   0.01752   0.00430  -0.0060  0.0176  0.0273  -1.0090   0.0000   0.2664
   1.600   0.2874   0.01759   0.00436  -0.0058  0.0177  0.0271  -1.0401   0.0000   0.2637
   1.800   0.3084   0.01766   0.00443  -0.0056  0.0178  0.0269  -1.0715   0.0000   0.2613
   2.000   0.3293   0.01774   0.00451  -0.0053  0.0179  0.0267  -1.1030   0.0000   0.2593
   2.200   0.3501   0.01783   0.00460  -0.0051  0.0141  0.0337  -1.1349   0.0000   0.2574
   2.400   0.3709   0.01792   0.00469  -0.0048  0.0142  0.0334  -1.1681   0.0000   0.2557
   2.600   0.3918   0.01802   0.00479  -0.0046  0.0143  0.0332  -1.2015   0.0000   0.2543
   2.800   0.4125   0.01812   0.00489  -0.0043  0.0144  0.0329  -1.2351   0.0000   0.2529
   3.000   0.4332   0.01823   0.00501  -0.0040  0.0145  0.0326  -1.2688   0.0000   0.2516
   3.200   0.4537   0.01835   0.00514  -0.0038  0.0111  0.0400  -1.3027   0.0000   0.2504
   3.400   0.4743   0.01848   0.00527  -0.0035  0.0112  0.0397  -1.3382   0.0000   0.2493
   3.600   0.4948   0.01861   0.00541  -0.0032  0.0112  0.0393  -1.3739   0.0000   0.2483
   3.800   0.5153   0.01874   0.00555  -0.0029  0.0113  0.0390  -1.4097   0.0000   0.2473
   4.000   0.5356   0.01888   0.00571  -0.0026  0.0114  0.0386  -1.4456   0.0000   0.2464
   4.200   0.5557   0.01904   0.00589  -0.0023  0.0084  0.0463  -1.4818   0.0000   0.2454
   4.400   0.5759   0.01920   0.00606  -0.0020  0.0084  0.0459  -1.5197   0.0000   0.2446
   4.600   0.5960   0.01936   0.00624  -0.0017  0.0085  0.0455  -1.5576   0.0000   0.2438
   4.800   0.6160   0.01953   0.00642  -0.0013  0.0085  0.0451  -1.5957   0.0000   0.2430
   5.000   0.6357   0.01972   0.00664  -0.0010  0.0060  0.0531  -1.6337   0.0000   0.2421
   5.200   0.6555   0.01990   0.00685  -0.0006  0.0060  0.0527  -1.6727   0.0000   0.2414
   5.400   0.6751   0.02009   0.00706  -0.0003  0.0060  0.0522  -1.7128   0.0000   0.2406
   5.600   0.6946   0.02029   0.00728   0.0001  0.0061  0.0518  -1.7530   0.0000   0.2399
   5.800   0.7140   0.02050   0.00752   0.0005  0.0061  0.0513  -1.7932   0.0000   0.2391
   6.000   0.7330   0.02073   0.00778   0.0009  0.0040  0.0596  -1.8333   0.0000   0.2383
   6.200   0.7521   0.02095   0.00804   0.0014  0.0040  0.0591  -1.8754   0.0000   0.2376
   6.400   0.7710   0.02119   0.00830   0.0018  0.0040  0.0586  -1.9176   0.0000   0.2368
   6.600   0.7897   0.02143   0.00858   0.0023  0.0040  0.0581  -1.9599   0.0000   0.2361
   6.800   0.8082   0.02168   0.00886   0.0027  0.0040  0.0576  -2.0021   0.0000   0.2354
   7.000   0.8262   0.02196   0.00919   0.0033  0.0024  0.0661  -2.0456   0.0000   0.2346
   7.200   0.8443   0.02223   0.00950   0.0038  0.0024  0.0656  -2.0897   0.0000   0.2338
   7.400   0.8621   0.02251   0.00982   0.0044  0.0024  0.0652  -2.1338   0.0000   0.2330
   7.600   0.8797   0.02280   0.01015   0.0049  0.0024  0.0647  -2.1777   0.0000   0.2322
   7.800   0.8967   0.02312   0.01053   0.0056  0.0012  0.0733  -2.2232   0.0000   0.2313
   8.000   0.9137   0.02344   0.01089   0.0062  0.0012  0.0728  -2.2689   0.0000   0.2305
   8.200   0.9303   0.02377   0.01127   0.0069  0.0012  0.0724  -2.3143   0.0000   0.2296
   8.400   0.9465   0.02412   0.01166   0.0076  0.0011  0.0719  -2.3603   0.0000   0.2287
   8.600   0.9623   0.02447   0.01207   0.0084  0.0011  0.0715  -2.4074   0.0000   0.2278
   8.800   0.9774   0.02486   0.01252   0.0093  0.0004  0.0803  -2.4537   0.0000   0.2268
   9.000   0.9922   0.02525   0.01297   0.0102  0.0004  0.0798  -2.5002   0.0000   0.2257
   9.200   1.0056   0.02565   0.01342   0.0113  0.0004  0.0794  -2.5467   0.0000   0.2245
   9.400   1.0179   0.02606   0.01388   0.0125  0.0004  0.0790  -2.5918   0.0000   0.2231
   9.600   1.0301   0.02650   0.01439   0.0138  0.0004  0.0786  -2.6377   0.0000   0.2218
   9.800   1.0424   0.02702   0.01497   0.0149  0.0000  0.0876  -2.6852   0.0000   0.2206
  10.000   1.0548   0.02755   0.01557   0.0159  0.0000  0.0872  -2.7331   0.0000   0.2195
  10.200   1.0668   0.02812   0.01620   0.0168  0.0000  0.0868  -2.7830   0.0000   0.2184
  10.400   1.0784   0.02873   0.01688   0.0178  0.0000  0.0864  -2.8321   0.0000   0.2174
  10.600   1.0894   0.02939   0.01761   0.0187  0.0000  0.0860  -2.8830   0.0000   0.2163
  10.800   1.1000   0.03009   0.01838   0.0197  0.0000  0.0855  -2.9334   0.0000   0.2153
  11.000   1.1095   0.03088   0.01925   0.0206  0.0001  0.0948  -2.9849   0.0000   0.2143
  11.200   1.1188   0.03170   0.02014   0.0214  0.0001  0.0944  -3.0370   0.0000   0.2134
  11.400   1.1276   0.03258   0.02111   0.0222  0.0001  0.0941  -3.0896   0.0000   0.2125
  11.600   1.1357   0.03355   0.02215   0.0229  0.0001  0.0937  -3.1432   0.0000   0.2116
  11.800   1.1431   0.03460   0.02329   0.0236  0.0001  0.0934  -3.1961   0.0000   0.2108
  12.000   1.1494   0.03579   0.02458   0.0241  0.0005  0.1028  -3.2497   0.0000   0.2100
  12.200   1.1554   0.03706   0.02593   0.0246  0.0005  0.1024  -3.3021   0.0000   0.2094
  12.400   1.1606   0.03844   0.02741   0.0249  0.0005  0.1021  -3.3545   0.0000   0.2088
  12.600   1.1650   0.03997   0.02902   0.0251  0.0005  0.1018  -3.4057   0.0000   0.2083
  12.800   1.1686   0.04164   0.03079   0.0252  0.0005  0.1016  -3.4541   0.0000   0.2079
  13.000   1.1712   0.04348   0.03273   0.0251  0.0006  0.1013  -3.5010   0.0000   0.2076
  13.200   1.1728   0.04551   0.03486   0.0248  0.0006  0.1011  -3.5462   0.0000   0.2074
  13.400   1.1733   0.04775   0.03721   0.0244  0.0006  0.1008  -3.5869   0.0000   0.2073
  13.600   1.1719   0.05031   0.03988   0.0237  0.0013  0.1104  -3.6216   0.0000   0.2074
  13.800   1.1697   0.05305   0.04274   0.0229  0.0013  0.1102  -3.6518   0.0000   0.2076
  14.000   1.1660   0.05608   0.04589   0.0219  0.0013  0.1101  -3.6775   0.0000   0.2079
  14.200   1.1606   0.05943   0.04935   0.0206  0.0013  0.1099  -3.6970   0.0000   0.2084
  14.400   1.1534   0.06312   0.05317   0.0192  0.0013  0.1098  -3.7085   0.0000   0.2091
  14.600   1.1443   0.06717   0.05735   0.0175  0.0013  0.1098  -3.7110   0.0000   0.2100
  14.800   1.1331   0.07162   0.06193   0.0157  0.0013  0.1097  -3.7037   0.0000   0.2110
  15.000   1.1201   0.07648   0.06692   0.0136  0.0013  0.1097  -3.6866   0.0000   0.2122
  15.200   1.1052   0.08173   0.07230   0.0113  0.0013  0.1097  -3.6596   0.0000   0.2137
  15.400   1.0888   0.08731   0.07802   0.0089  0.0013  0.1098  -3.6234   0.0000   0.2153
  15.600   1.0716   0.09313   0.08398   0.0064  0.0013  0.1099  -3.5809   0.0000   0.2171
  15.800   1.0542   0.09905   0.09003   0.0038  0.0013  0.1100  -3.5349   0.0000   0.2191
  16.000   1.0374   0.10496   0.09606   0.0012  0.0012  0.1101  -3.4881   0.0000   0.2211
  16.200   1.0219   0.11074   0.10195  -0.0014  0.0012  0.1102  -3.4437   0.0000   0.2232
  16.400   1.0080   0.11631   0.10763  -0.0038  0.0012  0.1102  -3.4039   0.0000   0.2254
  16.600   0.9958   0.12161   0.11303  -0.0062  0.0012  0.1103  -3.3699   0.0000   0.2275
  16.800   0.9859   0.12657   0.11808  -0.0085  0.0012  0.1103  -3.3448   0.0000   0.2295
  17.000   0.9778   0.13124   0.12283  -0.0107  0.0012  0.1103  -3.3279   0.0000   0.2314
  17.200   0.9713   0.13568   0.12735  -0.0128  0.0012  0.1103  -3.3166   0.0000   0.2333
  17.400   0.9659   0.13996   0.13171  -0.0148  0.0012  0.1102  -3.3091   0.0000   0.2352
  17.600   0.9616   0.14404   0.13586  -0.0168  0.0012  0.1102  -3.3058   0.0000   0.2370
  17.800   0.9582   0.14798   0.13987  -0.0188  0.0012  0.1101  -3.3058   0.0000   0.2387
  18.000   0.9555   0.15183   0.14379  -0.0208  0.0012  0.1100  -3.3079   0.0000   0.2405
  18.200   0.9536   0.15554   0.14757  -0.0227  0.0012  0.1100  -3.3130   0.0000   0.2422
  18.400   0.9522   0.15921   0.15131  -0.0246  0.0012  0.1099  -3.3189   0.0000   0.2439
  18.600   0.9514   0.16277   0.15492  -0.0266  0.0012  0.1098  -3.3277   0.0000   0.2455
  18.800   0.9510   0.16629   0.15850  -0.0285  0.0012  0.1096  -3.3385   0.0000   0.2472
  19.000   0.9506   0.16983   0.16212  -0.0305  0.0021  0.1194  -3.3466   0.0000   0.2490
  19.200   0.9509   0.17322   0.16556  -0.0324  0.0021  0.1192  -3.3609   0.0000   0.2506
  19.400   0.9515   0.17657   0.16897  -0.0343  0.0021  0.1191  -3.3760   0.0000   0.2522
  19.600   0.9524   0.17986   0.17232  -0.0363  0.0021  0.1190  -3.3917   0.0000   0.2538
  19.800   0.9535   0.18316   0.17567  -0.0383  0.0021  0.1189  -3.4071   0.0000   0.2555
  20.000   0.9550   0.18638   0.17895  -0.0402  0.0021  0.1188  -3.4240   0.0000   0.2571
  20.200   0.9566   0.18961   0.18224  -0.0422  0.0021  0.1187  -3.4401   0.0000   0.2587
  20.400   0.9583   0.19281   0.18550  -0.0442  0.0021  0.1185  -3.4564   0.0000   0.2603
  20.600   0.9604   0.19598   0.18872  -0.0462  0.0022  0.1184  -3.4733   0.0000   0.2619
  20.800   0.9625   0.19915   0.19194  -0.0483  0.0022  0.1183  -3.4892   0.0000   0.2635
  21.000   0.9645   0.20235   0.19520  -0.0503  0.0033  0.1280  -3.5019   0.0000   0.2651
  21.200   0.9668   0.20549   0.19840  -0.0524  0.0034  0.1279  -3.5186   0.0000   0.2667
  21.400   0.9693   0.20864   0.20159  -0.0545  0.0034  0.1278  -3.5376   0.0000   0.2683
  21.600   0.9719   0.21173   0.20474  -0.0565  0.0034  0.1277  -3.5574   0.0000   0.2699
  21.800   0.9746   0.21484   0.20790  -0.0587  0.0034  0.1276  -3.5752   0.0000   0.2715
  22.000   0.9774   0.21794   0.21105  -0.0608  0.0034  0.1274  -3.5934   0.0000   0.2730
  22.200   0.9803   0.22100   0.21417  -0.0629  0.0034  0.1273  -3.6111   0.0000   0.2746
  22.400   0.9831   0.22410   0.21731  -0.0650  0.0034  0.1272  -3.6269   0.0000   0.2761
  22.600   0.9861   0.22715   0.22042  -0.0672  0.0034  0.1271  -3.6426   0.0000   0.2777
  22.800   0.9891   0.23021   0.22353  -0.0694  0.0034  0.1270  -3.6572   0.0000   0.2792
  23.000   0.9919   0.23335   0.22672  -0.0716  0.0048  0.1368  -3.6651   0.0000   0.2809
  23.200   0.9951   0.23640   0.22982  -0.0738  0.0048  0.1367  -3.6778   0.0000   0.2824
  23.400   0.9982   0.23946   0.23294  -0.0760  0.0048  0.1366  -3.6885   0.0000   0.2839
  23.600   1.0014   0.24252   0.23605  -0.0782  0.0049  0.1365  -3.6983   0.0000   0.2855
  23.800   1.0047   0.24559   0.23916  -0.0804  0.0049  0.1364  -3.7069   0.0000   0.2870
  24.000   1.0079   0.24866   0.24228  -0.0827  0.0049  0.1363  -3.7137   0.0000   0.2885
  24.200   1.0113   0.25172   0.24539  -0.0850  0.0049  0.1362  -3.7219   0.0000   0.2900
  24.400   1.0147   0.25479   0.24852  -0.0872  0.0049  0.1361  -3.7322   0.0000   0.2915
  24.600   1.0181   0.25786   0.25163  -0.0895  0.0049  0.1360  -3.7413   0.0000   0.2930
  24.800   1.0216   0.26093   0.25475  -0.0918  0.0049  0.1359  -3.7491   0.0000   0.2945
  25.000   1.0248   0.26411   0.25798  -0.0942  0.0065  0.1459  -3.7480   0.0000   0.2961


