xflr5 v6.47

 Calculated polar for: NACA 23015

 1 1 Reynolds number fixed          Mach number fixed         

 xtrf =   1.000 (top)        1.000 (bottom)
 Mach =   0.000     Re =     0.450 e 6     Ncrit =   0.100

  alpha     CL        CD       CDp       Cm    Top Xtr Bot Xtr   Cpmin    Chinge    XCp    
 ------- -------- --------- --------- -------- ------- ------- -------- --------- ---------
 -10.000  -0.8865   0.02239   0.01290  -0.0273  0.0597  0.0051  -5.8752   0.0000   0.2067
  -9.800  -0.8698   0.02198   0.01244  -0.0265  0.0598  0.0051  -5.7249   0.0000   0.2072
  -9.600  -0.8529   0.02159   0.01199  -0.0258  0.0599  0.0051  -5.5748   0.0000   0.2077
  -9.400  -0.8356   0.02122   0.01155  -0.0250  0.0533  0.0034  -5.4250   0.0000   0.2082
  -9.200  -0.8181   0.02085   0.01114  -0.0243  0.0534  0.0034  -5.2754   0.0000   0.2086
  -9.000  -0.8003   0.02051   0.01074  -0.0236  0.0535  0.0034  -5.1264   0.0000   0.2090
  -8.800  -0.7823   0.02017   0.01035  -0.0230  0.0536  0.0034  -4.9781   0.0000   0.2093
  -8.600  -0.7641   0.01985   0.00998  -0.0223  0.0537  0.0033  -4.8306   0.0000   0.2096
  -8.400  -0.7457   0.01953   0.00961  -0.0217  0.0475  0.0020  -4.6840   0.0000   0.2099
  -8.200  -0.7271   0.01923   0.00927  -0.0211  0.0476  0.0020  -4.5382   0.0000   0.2101
  -8.000  -0.7083   0.01895   0.00894  -0.0206  0.0477  0.0020  -4.3936   0.0000   0.2103
  -7.800  -0.6894   0.01867   0.00861  -0.0200  0.0478  0.0020  -4.2564   0.0000   0.2104
  -7.600  -0.6703   0.01840   0.00831  -0.0195  0.0479  0.0019  -4.1230   0.0000   0.2106
  -7.400  -0.6511   0.01815   0.00800  -0.0190  0.0420  0.0010  -3.9906   0.0000   0.2106
  -7.200  -0.6317   0.01790   0.00772  -0.0185  0.0421  0.0010  -3.8594   0.0000   0.2107
  -7.000  -0.6122   0.01766   0.00744  -0.0180  0.0422  0.0009  -3.7292   0.0000   0.2107
  -6.800  -0.5925   0.01744   0.00718  -0.0175  0.0423  0.0009  -3.6002   0.0000   0.2106
  -6.600  -0.5727   0.01722   0.00693  -0.0170  0.0424  0.0009  -3.4724   0.0000   0.2105
  -6.400  -0.5529   0.01701   0.00667  -0.0166  0.0369  0.0003  -3.3458   0.0000   0.2103
  -6.200  -0.5329   0.01681   0.00644  -0.0162  0.0370  0.0003  -3.2205   0.0000   0.2101
  -6.000  -0.5127   0.01662   0.00622  -0.0158  0.0370  0.0003  -3.0965   0.0000   0.2098
  -5.800  -0.4925   0.01644   0.00601  -0.0154  0.0371  0.0003  -2.9738   0.0000   0.2094
  -5.600  -0.4722   0.01627   0.00580  -0.0150  0.0372  0.0003  -2.8526   0.0000   0.2089
  -5.400  -0.4518   0.01610   0.00560  -0.0146  0.0321  0.0000  -2.7319   0.0000   0.2084
  -5.200  -0.4313   0.01594   0.00541  -0.0143  0.0321  0.0000  -2.6135   0.0000   0.2077
  -5.000  -0.4106   0.01579   0.00523  -0.0139  0.0322  0.0000  -2.4978   0.0000   0.2070
  -4.800  -0.3899   0.01565   0.00506  -0.0136  0.0323  0.0000  -2.3909   0.0000   0.2060
  -4.600  -0.3692   0.01552   0.00491  -0.0133  0.0324  0.0000  -2.2852   0.0000   0.2050
  -4.400  -0.3483   0.01539   0.00474  -0.0130  0.0276  0.0001  -2.1801   0.0000   0.2037
  -4.200  -0.3274   0.01527   0.00460  -0.0127  0.0277  0.0001  -2.0772   0.0000   0.2023
  -4.000  -0.3064   0.01516   0.00446  -0.0124  0.0278  0.0001  -1.9756   0.0000   0.2005
  -3.800  -0.2853   0.01505   0.00434  -0.0121  0.0278  0.0001  -1.8755   0.0000   0.1985
  -3.600  -0.2642   0.01496   0.00422  -0.0118  0.0279  0.0001  -1.7768   0.0000   0.1960
  -3.400  -0.2430   0.01486   0.00410  -0.0116  0.0234  0.0007  -1.6818   0.0000   0.1931
  -3.200  -0.2218   0.01478   0.00399  -0.0113  0.0235  0.0007  -1.5869   0.0000   0.1895
  -3.000  -0.2005   0.01470   0.00390  -0.0111  0.0236  0.0007  -1.4947   0.0000   0.1851
  -2.800  -0.1791   0.01463   0.00381  -0.0109  0.0237  0.0007  -1.4090   0.0000   0.1796
  -2.600  -0.1578   0.01456   0.00371  -0.0106  0.0195  0.0016  -1.3250   0.0000   0.1726
  -2.400  -0.1363   0.01450   0.00364  -0.0104  0.0196  0.0016  -1.2428   0.0000   0.1632
  -2.200  -0.1149   0.01445   0.00357  -0.0102  0.0197  0.0017  -1.1619   0.0000   0.1501
  -2.000  -0.0933   0.01441   0.00351  -0.0100  0.0198  0.0017  -1.0823   0.0000   0.1309
  -1.800  -0.0718   0.01437   0.00345  -0.0098  0.0198  0.0017  -1.0041   0.0000   0.1001
  -1.600  -0.0503   0.01433   0.00340  -0.0096  0.0160  0.0031  -0.9303   0.0000   0.0432
  -1.400  -0.0287   0.01430   0.00336  -0.0094  0.0161  0.0032  -0.8607   0.0000  -0.1005
  -1.200  -0.0071   0.01428   0.00332  -0.0093  0.0162  0.0032  -0.7923   0.0000  -1.1203
  -1.000   0.0145   0.01426   0.00329  -0.0091  0.0163  0.0032  -0.7251   0.0000   0.8969
  -0.800   0.0362   0.01425   0.00327  -0.0089  0.0163  0.0032  -0.6977   0.0000   0.5008
  -0.600   0.0578   0.01424   0.00325  -0.0087  0.0129  0.0052  -0.7249   0.0000   0.4012
  -0.400   0.0794   0.01424   0.00324  -0.0086  0.0129  0.0052  -0.7523   0.0000   0.3559
  -0.200   0.1011   0.01425   0.00323  -0.0084  0.0130  0.0053  -0.7798   0.0000   0.3300
   0.000   0.1227   0.01426   0.00324  -0.0083  0.0131  0.0053  -0.8076   0.0000   0.3132
   0.200   0.1444   0.01427   0.00324  -0.0081  0.0131  0.0053  -0.8367   0.0000   0.3015
   0.400   0.1660   0.01429   0.00326  -0.0079  0.0100  0.0080  -0.8660   0.0000   0.2928
   0.600   0.1876   0.01432   0.00328  -0.0078  0.0101  0.0079  -0.8955   0.0000   0.2861
   0.800   0.2093   0.01435   0.00330  -0.0076  0.0101  0.0079  -0.9252   0.0000   0.2808
   1.000   0.2309   0.01439   0.00333  -0.0075  0.0102  0.0079  -0.9550   0.0000   0.2765
   1.200   0.2524   0.01443   0.00337  -0.0073  0.0074  0.0113  -0.9861   0.0000   0.2729
   1.400   0.2740   0.01447   0.00341  -0.0071  0.0075  0.0112  -1.0177   0.0000   0.2698
   1.600   0.2956   0.01453   0.00346  -0.0070  0.0075  0.0112  -1.0494   0.0000   0.2672
   1.800   0.3171   0.01458   0.00352  -0.0068  0.0075  0.0112  -1.0814   0.0000   0.2649
   2.000   0.3386   0.01465   0.00358  -0.0067  0.0076  0.0111  -1.1135   0.0000   0.2629
   2.200   0.3600   0.01471   0.00365  -0.0065  0.0052  0.0151  -1.1467   0.0000   0.2611
   2.400   0.3814   0.01478   0.00372  -0.0063  0.0053  0.0150  -1.1806   0.0000   0.2595
   2.600   0.4028   0.01486   0.00380  -0.0062  0.0053  0.0149  -1.2146   0.0000   0.2580
   2.800   0.4241   0.01494   0.00389  -0.0060  0.0053  0.0149  -1.2489   0.0000   0.2567
   3.000   0.4454   0.01503   0.00398  -0.0058  0.0054  0.0148  -1.2833   0.0000   0.2555
   3.200   0.4666   0.01512   0.00408  -0.0056  0.0034  0.0193  -1.3188   0.0000   0.2543
   3.400   0.4878   0.01522   0.00418  -0.0054  0.0035  0.0192  -1.3551   0.0000   0.2532
   3.600   0.5089   0.01533   0.00429  -0.0053  0.0035  0.0191  -1.3915   0.0000   0.2522
   3.800   0.5300   0.01543   0.00440  -0.0051  0.0035  0.0189  -1.4282   0.0000   0.2513
   4.000   0.5510   0.01555   0.00453  -0.0048  0.0020  0.0240  -1.4649   0.0000   0.2504
   4.200   0.5719   0.01567   0.00466  -0.0046  0.0020  0.0238  -1.5030   0.0000   0.2495
   4.400   0.5927   0.01579   0.00480  -0.0044  0.0020  0.0236  -1.5418   0.0000   0.2487
   4.600   0.6135   0.01592   0.00494  -0.0042  0.0020  0.0235  -1.5807   0.0000   0.2479
   4.800   0.6342   0.01606   0.00508  -0.0040  0.0020  0.0233  -1.6198   0.0000   0.2471
   5.000   0.6548   0.01620   0.00525  -0.0037  0.0010  0.0288  -1.6589   0.0000   0.2464
   5.200   0.6753   0.01635   0.00541  -0.0035  0.0010  0.0286  -1.7000   0.0000   0.2456
   5.400   0.6957   0.01650   0.00558  -0.0032  0.0010  0.0284  -1.7413   0.0000   0.2449
   5.600   0.7160   0.01666   0.00575  -0.0029  0.0010  0.0282  -1.7827   0.0000   0.2442
   5.800   0.7361   0.01683   0.00595  -0.0026  0.0003  0.0340  -1.8241   0.0000   0.2435
   6.000   0.7562   0.01700   0.00614  -0.0023  0.0003  0.0338  -1.8668   0.0000   0.2428
   6.200   0.7761   0.01718   0.00634  -0.0020  0.0003  0.0336  -1.9105   0.0000   0.2421
   6.400   0.7959   0.01737   0.00654  -0.0017  0.0003  0.0334  -1.9542   0.0000   0.2414
   6.600   0.8155   0.01756   0.00676  -0.0013  0.0003  0.0331  -1.9980   0.0000   0.2407
   6.800   0.8350   0.01777   0.00700  -0.0009  0.0000  0.0393  -2.0427   0.0000   0.2400
   7.000   0.8543   0.01797   0.00723  -0.0005  0.0000  0.0390  -2.0887   0.0000   0.2393
   7.200   0.8735   0.01819   0.00747  -0.0001  0.0000  0.0388  -2.1347   0.0000   0.2386
   7.400   0.8924   0.01842   0.00772   0.0003  0.0000  0.0386  -2.1808   0.0000   0.2378
   7.600   0.9112   0.01865   0.00799   0.0007  0.0001  0.0451  -2.2282   0.0000   0.2371
   7.800   0.9297   0.01889   0.00826   0.0012  0.0001  0.0448  -2.2764   0.0000   0.2364
   8.000   0.9480   0.01914   0.00854   0.0017  0.0001  0.0446  -2.3246   0.0000   0.2356
   8.200   0.9660   0.01940   0.00884   0.0023  0.0001  0.0444  -2.3733   0.0000   0.2348
   8.400   0.9838   0.01967   0.00914   0.0028  0.0001  0.0441  -2.4236   0.0000   0.2340
   8.600   1.0012   0.01996   0.00946   0.0035  0.0006  0.0509  -2.4737   0.0000   0.2332
   8.800   1.0184   0.02025   0.00979   0.0041  0.0006  0.0506  -2.5244   0.0000   0.2324
   9.000   1.0351   0.02055   0.01013   0.0048  0.0006  0.0504  -2.5765   0.0000   0.2315
   9.200   1.0515   0.02087   0.01048   0.0055  0.0006  0.0502  -2.6284   0.0000   0.2306
   9.400   1.0674   0.02120   0.01085   0.0063  0.0006  0.0499  -2.6817   0.0000   0.2296
   9.600   1.0825   0.02154   0.01124   0.0072  0.0014  0.0570  -2.7347   0.0000   0.2286
   9.800   1.0960   0.02188   0.01162   0.0085  0.0014  0.0568  -2.7867   0.0000   0.2273
  10.000   1.1085   0.02223   0.01202   0.0098  0.0014  0.0566  -2.8387   0.0000   0.2258
  10.200   1.1216   0.02263   0.01246   0.0110  0.0014  0.0564  -2.8937   0.0000   0.2246
  10.400   1.1349   0.02306   0.01294   0.0120  0.0015  0.0561  -2.9504   0.0000   0.2235
  10.600   1.1479   0.02354   0.01347   0.0130  0.0026  0.0635  -3.0094   0.0000   0.2224
  10.800   1.1607   0.02404   0.01402   0.0140  0.0026  0.0633  -3.0696   0.0000   0.2214
  11.000   1.1730   0.02458   0.01460   0.0150  0.0026  0.0631  -3.1317   0.0000   0.2203
  11.200   1.1848   0.02515   0.01523   0.0160  0.0026  0.0629  -3.1962   0.0000   0.2193
  11.400   1.1961   0.02576   0.01589   0.0169  0.0027  0.0627  -3.2617   0.0000   0.2183
  11.600   1.2068   0.02642   0.01662   0.0179  0.0040  0.0702  -3.3287   0.0000   0.2173
  11.800   1.2170   0.02714   0.01739   0.0188  0.0041  0.0701  -3.3965   0.0000   0.2163
  12.000   1.2267   0.02791   0.01822   0.0196  0.0041  0.0699  -3.4657   0.0000   0.2153
  12.200   1.2359   0.02875   0.01912   0.0204  0.0041  0.0697  -3.5336   0.0000   0.2144
  12.400   1.2444   0.02966   0.02010   0.0212  0.0042  0.0695  -3.6042   0.0000   0.2136
  12.600   1.2522   0.03067   0.02117   0.0219  0.0058  0.0774  -3.6733   0.0000   0.2127
  12.800   1.2594   0.03176   0.02233   0.0225  0.0058  0.0772  -3.7409   0.0000   0.2120
  13.000   1.2660   0.03296   0.02360   0.0229  0.0059  0.0770  -3.8080   0.0000   0.2113
  13.200   1.2719   0.03427   0.02498   0.0233  0.0059  0.0768  -3.8760   0.0000   0.2106
  13.400   1.2770   0.03571   0.02650   0.0236  0.0059  0.0767  -3.9414   0.0000   0.2101
  13.600   1.2813   0.03730   0.02816   0.0237  0.0060  0.0765  -4.0041   0.0000   0.2096
  13.800   1.2846   0.03905   0.02999   0.0237  0.0060  0.0764  -4.0631   0.0000   0.2093
  14.000   1.2868   0.04099   0.03203   0.0235  0.0079  0.0845  -4.1182   0.0000   0.2090
  14.200   1.2880   0.04313   0.03425   0.0232  0.0079  0.0844  -4.1722   0.0000   0.2088
  14.400   1.2881   0.04547   0.03668   0.0227  0.0080  0.0843  -4.2224   0.0000   0.2087
  14.600   1.2868   0.04805   0.03935   0.0220  0.0080  0.0842  -4.2670   0.0000   0.2088
  14.800   1.2841   0.05090   0.04229   0.0211  0.0080  0.0841  -4.3054   0.0000   0.2089
  15.000   1.2797   0.05403   0.04552   0.0201  0.0080  0.0840  -4.3364   0.0000   0.2092
  15.200   1.2736   0.05746   0.04905   0.0189  0.0080  0.0839  -4.3593   0.0000   0.2095
  15.400   1.2658   0.06121   0.05291   0.0175  0.0080  0.0839  -4.3738   0.0000   0.2100
  15.600   1.2562   0.06530   0.05711   0.0159  0.0081  0.0838  -4.3794   0.0000   0.2107
  15.800   1.2447   0.06971   0.06162   0.0142  0.0081  0.0838  -4.3755   0.0000   0.2115
  16.000   1.2318   0.07443   0.06645   0.0123  0.0080  0.0838  -4.3633   0.0000   0.2124
  16.200   1.2175   0.07941   0.07155   0.0103  0.0080  0.0838  -4.3437   0.0000   0.2134
  16.400   1.2023   0.08458   0.07682   0.0082  0.0080  0.0838  -4.3174   0.0000   0.2146
  16.600   1.1867   0.08988   0.08224   0.0061  0.0080  0.0838  -4.2872   0.0000   0.2158
  16.800   1.1714   0.09523   0.08769   0.0039  0.0080  0.0839  -4.2555   0.0000   0.2172
  17.000   1.1566   0.10049   0.09305   0.0017  0.0080  0.0839  -4.2246   0.0000   0.2186
  17.200   1.1427   0.10569   0.09834  -0.0005  0.0080  0.0839  -4.1949   0.0000   0.2201
  17.400   1.1299   0.11077   0.10351  -0.0027  0.0080  0.0839  -4.1700   0.0000   0.2216
  17.600   1.1185   0.11568   0.10850  -0.0048  0.0080  0.0839  -4.1499   0.0000   0.2231
  17.800   1.1082   0.12042   0.11332  -0.0069  0.0080  0.0839  -4.1336   0.0000   0.2246
  18.000   1.0992   0.12499   0.11796  -0.0090  0.0080  0.0839  -4.1219   0.0000   0.2262
  18.200   1.0914   0.12940   0.12245  -0.0111  0.0101  0.0924  -4.1147   0.0000   0.2277
  18.400   1.0844   0.13373   0.12685  -0.0132  0.0101  0.0923  -4.1094   0.0000   0.2293
  18.600   1.0784   0.13791   0.13109  -0.0152  0.0101  0.0923  -4.1084   0.0000   0.2308
  18.800   1.0735   0.14191   0.13515  -0.0172  0.0101  0.0923  -4.1117   0.0000   0.2323
  19.000   1.0687   0.14591   0.13922  -0.0193  0.0101  0.0922  -4.1139   0.0000   0.2339
  19.200   1.0653   0.14970   0.14306  -0.0212  0.0101  0.0922  -4.1225   0.0000   0.2354
  19.400   1.0619   0.15354   0.14696  -0.0233  0.0101  0.0922  -4.1291   0.0000   0.2370
  19.600   1.0596   0.15717   0.15065  -0.0253  0.0101  0.0921  -4.1416   0.0000   0.2385
  19.800   1.0572   0.16089   0.15443  -0.0274  0.0101  0.0921  -4.1510   0.0000   0.2401
  20.000   1.0559   0.16441   0.15800  -0.0294  0.0102  0.0920  -4.1660   0.0000   0.2416
  20.200   1.0543   0.16800   0.16165  -0.0315  0.0102  0.0920  -4.1779   0.0000   0.2432
  20.400   1.0536   0.17145   0.16515  -0.0335  0.0102  0.0919  -4.1937   0.0000   0.2447
  20.600   1.0527   0.17492   0.16867  -0.0356  0.0102  0.0919  -4.2076   0.0000   0.2463
  20.800   1.0522   0.17835   0.17215  -0.0377  0.0102  0.0918  -4.2235   0.0000   0.2478
  21.000   1.0522   0.18169   0.17554  -0.0398  0.0126  0.1004  -4.2445   0.0000   0.2494
  21.200   1.0519   0.18513   0.17903  -0.0420  0.0126  0.1003  -4.2618   0.0000   0.2510
  21.400   1.0524   0.18841   0.18237  -0.0441  0.0127  0.1002  -4.2835   0.0000   0.2526
  21.600   1.0526   0.19178   0.18578  -0.0463  0.0127  0.1002  -4.3019   0.0000   0.2542
  21.800   1.0532   0.19510   0.18915  -0.0485  0.0127  0.1001  -4.3215   0.0000   0.2558
  22.000   1.0541   0.19836   0.19245  -0.0507  0.0127  0.1001  -4.3423   0.0000   0.2574
  22.200   1.0546   0.20174   0.19589  -0.0530  0.0127  0.1000  -4.3579   0.0000   0.2591
  22.400   1.0557   0.20500   0.19920  -0.0552  0.0127  0.1000  -4.3770   0.0000   0.2607
  22.600   1.0568   0.20829   0.20253  -0.0575  0.0127  0.0999  -4.3943   0.0000   0.2623
  22.800   1.0578   0.21161   0.20591  -0.0598  0.0127  0.0998  -4.4094   0.0000   0.2640
  23.000   1.0593   0.21482   0.20916  -0.0621  0.0154  0.1086  -4.4277   0.0000   0.2656
  23.200   1.0603   0.21817   0.21256  -0.0645  0.0155  0.1085  -4.4396   0.0000   0.2674
  23.400   1.0618   0.22144   0.21588  -0.0668  0.0155  0.1085  -4.4536   0.0000   0.2690
  23.600   1.0632   0.22470   0.21919  -0.0692  0.0155  0.1084  -4.4662   0.0000   0.2707
  23.800   1.0644   0.22807   0.22260  -0.0717  0.0155  0.1084  -4.4732   0.0000   0.2725
  24.000   1.0660   0.23129   0.22587  -0.0741  0.0155  0.1083  -4.4843   0.0000   0.2742
  24.200   1.0672   0.23468   0.22931  -0.0766  0.0155  0.1083  -4.4876   0.0000   0.2760
  24.400   1.0688   0.23797   0.23264  -0.0790  0.0155  0.1082  -4.4984   0.0000   0.2777
  24.600   1.0703   0.24131   0.23604  -0.0815  0.0155  0.1082  -4.5062   0.0000   0.2795
  24.800   1.0716   0.24473   0.23950  -0.0841  0.0155  0.1082  -4.5098   0.0000   0.2813
  25.000   1.0734   0.24804   0.24286  -0.0866  0.0155  0.1081  -4.5165   0.0000   0.2830


