xflr5 v6.47

 Calculated polar for: NACA 23015

 1 1 Reynolds number fixed          Mach number fixed         

 xtrf =   1.000 (top)        1.000 (bottom)
 Mach =   0.000     Re =     3.000 e 6     Ncrit =   0.100

  alpha     CL        CD       CDp       Cm    Top Xtr Bot Xtr   Cpmin    Chinge    XCp    
 ------- -------- --------- --------- -------- ------- ------- -------- --------- ---------
 -10.000  -0.9574   0.01462   0.00746  -0.0176  0.0373  0.0143  -6.2856   0.0000   0.2194
  -9.800  -0.9378   0.01439   0.00720  -0.0171  0.0373  0.0142  -6.1153   0.0000   0.2197
  -9.600  -0.9179   0.01417   0.00695  -0.0167  0.0373  0.0142  -5.9462   0.0000   0.2200
  -9.400  -0.8980   0.01395   0.00671  -0.0163  0.0373  0.0142  -5.7781   0.0000   0.2203
  -9.200  -0.8778   0.01374   0.00648  -0.0158  0.0374  0.0142  -5.6113   0.0000   0.2205
  -9.000  -0.8576   0.01354   0.00626  -0.0155  0.0324  0.0112  -5.4459   0.0000   0.2208
  -8.800  -0.8372   0.01335   0.00605  -0.0151  0.0324  0.0112  -5.2819   0.0000   0.2209
  -8.600  -0.8167   0.01316   0.00584  -0.0147  0.0324  0.0112  -5.1194   0.0000   0.2211
  -8.400  -0.7961   0.01298   0.00564  -0.0144  0.0324  0.0112  -4.9581   0.0000   0.2212
  -8.200  -0.7754   0.01281   0.00544  -0.0140  0.0325  0.0112  -4.7984   0.0000   0.2213
  -8.000  -0.7545   0.01264   0.00525  -0.0137  0.0278  0.0086  -4.6403   0.0000   0.2214
  -7.800  -0.7336   0.01248   0.00507  -0.0134  0.0278  0.0085  -4.4839   0.0000   0.2215
  -7.600  -0.7126   0.01232   0.00490  -0.0131  0.0278  0.0085  -4.3292   0.0000   0.2215
  -7.400  -0.6914   0.01217   0.00473  -0.0129  0.0279  0.0085  -4.1849   0.0000   0.2214
  -7.200  -0.6702   0.01203   0.00457  -0.0126  0.0235  0.0062  -4.0435   0.0000   0.2214
  -7.000  -0.6489   0.01189   0.00441  -0.0124  0.0236  0.0062  -3.9036   0.0000   0.2212
  -6.800  -0.6275   0.01176   0.00426  -0.0121  0.0236  0.0062  -3.7653   0.0000   0.2211
  -6.600  -0.6060   0.01163   0.00412  -0.0119  0.0236  0.0062  -3.6283   0.0000   0.2209
  -6.400  -0.5845   0.01151   0.00398  -0.0117  0.0236  0.0062  -3.4929   0.0000   0.2206
  -6.200  -0.5629   0.01139   0.00385  -0.0115  0.0197  0.0043  -3.3592   0.0000   0.2203
  -6.000  -0.5412   0.01128   0.00372  -0.0113  0.0197  0.0043  -3.2272   0.0000   0.2199
  -5.800  -0.5195   0.01117   0.00360  -0.0111  0.0197  0.0043  -3.0968   0.0000   0.2195
  -5.600  -0.4976   0.01107   0.00349  -0.0110  0.0197  0.0042  -2.9681   0.0000   0.2189
  -5.400  -0.4758   0.01097   0.00338  -0.0108  0.0197  0.0042  -2.8412   0.0000   0.2183
  -5.200  -0.4538   0.01088   0.00327  -0.0107  0.0161  0.0027  -2.7161   0.0000   0.2176
  -5.000  -0.4318   0.01079   0.00317  -0.0105  0.0161  0.0027  -2.5928   0.0000   0.2168
  -4.800  -0.4098   0.01071   0.00308  -0.0104  0.0161  0.0027  -2.4713   0.0000   0.2158
  -4.600  -0.3877   0.01063   0.00299  -0.0103  0.0162  0.0026  -2.3591   0.0000   0.2147
  -4.400  -0.3655   0.01056   0.00290  -0.0102  0.0129  0.0014  -2.2497   0.0000   0.2134
  -4.200  -0.3434   0.01049   0.00282  -0.0101  0.0129  0.0014  -2.1419   0.0000   0.2119
  -4.000  -0.3211   0.01042   0.00275  -0.0100  0.0129  0.0014  -2.0357   0.0000   0.2102
  -3.800  -0.2989   0.01036   0.00268  -0.0099  0.0129  0.0014  -1.9312   0.0000   0.2082
  -3.600  -0.2766   0.01030   0.00261  -0.0098  0.0130  0.0014  -1.8282   0.0000   0.2057
  -3.400  -0.2542   0.01025   0.00255  -0.0097  0.0100  0.0006  -1.7270   0.0000   0.2029
  -3.200  -0.2319   0.01020   0.00249  -0.0096  0.0100  0.0006  -1.6275   0.0000   0.1994
  -3.000  -0.2095   0.01016   0.00244  -0.0096  0.0101  0.0006  -1.5297   0.0000   0.1951
  -2.800  -0.1870   0.01012   0.00239  -0.0095  0.0101  0.0006  -1.4397   0.0000   0.1897
  -2.600  -0.1646   0.01008   0.00234  -0.0095  0.0101  0.0006  -1.3524   0.0000   0.1828
  -2.400  -0.1421   0.01005   0.00230  -0.0094  0.0075  0.0001  -1.2666   0.0000   0.1737
  -2.200  -0.1196   0.01002   0.00227  -0.0094  0.0075  0.0001  -1.1822   0.0000   0.1610
  -2.000  -0.0971   0.00999   0.00223  -0.0093  0.0075  0.0001  -1.0994   0.0000   0.1425
  -1.800  -0.0746   0.00997   0.00221  -0.0093  0.0076  0.0001  -1.0181   0.0000   0.1126
  -1.600  -0.0520   0.00995   0.00218  -0.0093  0.0053  0.0000  -0.9418   0.0000   0.0567
  -1.400  -0.0295   0.00994   0.00216  -0.0092  0.0054  0.0000  -0.8695   0.0000  -0.0850
  -1.200  -0.0069   0.00992   0.00214  -0.0092  0.0054  0.0000  -0.7985   0.0000  -1.1531
  -1.000   0.0157   0.00992   0.00213  -0.0092  0.0054  0.0000  -0.7289   0.0000   0.8569
  -0.800   0.0382   0.00991   0.00212  -0.0092  0.0054  0.0000  -0.6989   0.0000   0.4940
  -0.600   0.0608   0.00991   0.00212  -0.0092  0.0035  0.0003  -0.7269   0.0000   0.4005
  -0.400   0.0834   0.00991   0.00212  -0.0092  0.0036  0.0003  -0.7551   0.0000   0.3576
  -0.200   0.1060   0.00992   0.00212  -0.0091  0.0036  0.0003  -0.7835   0.0000   0.3331
   0.000   0.1286   0.00993   0.00213  -0.0091  0.0036  0.0003  -0.8121   0.0000   0.3171
   0.200   0.1511   0.00994   0.00214  -0.0091  0.0021  0.0010  -0.8422   0.0000   0.3059
   0.400   0.1737   0.00996   0.00215  -0.0091  0.0021  0.0010  -0.8724   0.0000   0.2976
   0.600   0.1963   0.00998   0.00217  -0.0091  0.0021  0.0010  -0.9028   0.0000   0.2912
   0.800   0.2188   0.01000   0.00219  -0.0091  0.0021  0.0010  -0.9334   0.0000   0.2861
   1.000   0.2414   0.01003   0.00221  -0.0091  0.0021  0.0010  -0.9642   0.0000   0.2820
   1.200   0.2639   0.01006   0.00224  -0.0091  0.0010  0.0022  -0.9966   0.0000   0.2785
   1.400   0.2864   0.01009   0.00227  -0.0091  0.0010  0.0022  -1.0291   0.0000   0.2756
   1.600   0.3089   0.01013   0.00231  -0.0091  0.0010  0.0022  -1.0619   0.0000   0.2731
   1.800   0.3313   0.01016   0.00234  -0.0091  0.0010  0.0022  -1.0949   0.0000   0.2709
   2.000   0.3538   0.01021   0.00239  -0.0091  0.0010  0.0022  -1.1280   0.0000   0.2690
   2.200   0.3762   0.01025   0.00243  -0.0090  0.0003  0.0037  -1.1627   0.0000   0.2673
   2.400   0.3986   0.01030   0.00248  -0.0090  0.0003  0.0037  -1.1978   0.0000   0.2657
   2.600   0.4210   0.01036   0.00254  -0.0090  0.0003  0.0037  -1.2330   0.0000   0.2643
   2.800   0.4433   0.01041   0.00259  -0.0090  0.0003  0.0037  -1.2685   0.0000   0.2630
   3.000   0.4656   0.01047   0.00265  -0.0090  0.0000  0.0057  -1.3041   0.0000   0.2619
   3.200   0.4879   0.01053   0.00272  -0.0090  0.0000  0.0057  -1.3415   0.0000   0.2608
   3.400   0.5101   0.01060   0.00279  -0.0089  0.0000  0.0057  -1.3791   0.0000   0.2598
   3.600   0.5323   0.01067   0.00286  -0.0089  0.0000  0.0057  -1.4170   0.0000   0.2588
   3.800   0.5544   0.01074   0.00293  -0.0089  0.0000  0.0056  -1.4551   0.0000   0.2579
   4.000   0.5765   0.01082   0.00302  -0.0088  0.0001  0.0081  -1.4935   0.0000   0.2571
   4.200   0.5986   0.01090   0.00310  -0.0088  0.0001  0.0080  -1.5337   0.0000   0.2563
   4.400   0.6206   0.01098   0.00319  -0.0088  0.0001  0.0080  -1.5741   0.0000   0.2555
   4.600   0.6425   0.01107   0.00328  -0.0087  0.0001  0.0080  -1.6147   0.0000   0.2548
   4.800   0.6644   0.01116   0.00338  -0.0086  0.0005  0.0108  -1.6556   0.0000   0.2541
   5.000   0.6863   0.01126   0.00348  -0.0086  0.0005  0.0108  -1.6974   0.0000   0.2534
   5.200   0.7081   0.01136   0.00358  -0.0085  0.0005  0.0108  -1.7405   0.0000   0.2527
   5.400   0.7298   0.01146   0.00369  -0.0084  0.0005  0.0107  -1.7838   0.0000   0.2520
   5.600   0.7514   0.01157   0.00380  -0.0084  0.0013  0.0140  -1.8273   0.0000   0.2514
   5.800   0.7730   0.01168   0.00392  -0.0083  0.0013  0.0139  -1.8712   0.0000   0.2508
   6.000   0.7945   0.01179   0.00404  -0.0082  0.0013  0.0139  -1.9170   0.0000   0.2502
   6.200   0.8159   0.01191   0.00417  -0.0081  0.0013  0.0139  -1.9631   0.0000   0.2495
   6.400   0.8373   0.01204   0.00430  -0.0079  0.0013  0.0138  -2.0094   0.0000   0.2489
   6.600   0.8586   0.01217   0.00444  -0.0078  0.0024  0.0174  -2.0560   0.0000   0.2483
   6.800   0.8797   0.01230   0.00458  -0.0077  0.0024  0.0174  -2.1048   0.0000   0.2477
   7.000   0.9008   0.01244   0.00472  -0.0075  0.0024  0.0173  -2.1538   0.0000   0.2472
   7.200   0.9218   0.01258   0.00488  -0.0074  0.0024  0.0173  -2.2030   0.0000   0.2466
   7.400   0.9427   0.01273   0.00504  -0.0072  0.0039  0.0213  -2.2534   0.0000   0.2460
   7.600   0.9634   0.01288   0.00520  -0.0070  0.0039  0.0212  -2.3052   0.0000   0.2454
   7.800   0.9841   0.01304   0.00536  -0.0068  0.0039  0.0212  -2.3573   0.0000   0.2448
   8.000   1.0046   0.01320   0.00554  -0.0066  0.0039  0.0211  -2.4099   0.0000   0.2442
   8.200   1.0250   0.01337   0.00572  -0.0064  0.0057  0.0254  -2.4647   0.0000   0.2436
   8.400   1.0453   0.01354   0.00591  -0.0061  0.0057  0.0254  -2.5197   0.0000   0.2429
   8.600   1.0654   0.01372   0.00610  -0.0059  0.0057  0.0253  -2.5757   0.0000   0.2423
   8.800   1.0853   0.01390   0.00630  -0.0056  0.0057  0.0253  -2.6337   0.0000   0.2417
   9.000   1.1051   0.01410   0.00650  -0.0053  0.0058  0.0252  -2.6918   0.0000   0.2411
   9.200   1.1248   0.01429   0.00672  -0.0050  0.0079  0.0299  -2.7526   0.0000   0.2404
   9.400   1.1442   0.01450   0.00693  -0.0046  0.0079  0.0299  -2.8138   0.0000   0.2398
   9.600   1.1634   0.01471   0.00716  -0.0042  0.0079  0.0298  -2.8778   0.0000   0.2391
   9.800   1.1825   0.01493   0.00739  -0.0038  0.0079  0.0297  -2.9430   0.0000   0.2384
  10.000   1.2013   0.01515   0.00764  -0.0034  0.0104  0.0348  -3.0109   0.0000   0.2377
  10.200   1.2198   0.01539   0.00789  -0.0029  0.0104  0.0347  -3.0817   0.0000   0.2370
  10.400   1.2381   0.01563   0.00815  -0.0025  0.0104  0.0347  -3.1554   0.0000   0.2362
  10.600   1.2561   0.01588   0.00842  -0.0019  0.0104  0.0346  -3.2325   0.0000   0.2355
  10.800   1.2739   0.01613   0.00869  -0.0013  0.0132  0.0400  -3.3128   0.0000   0.2347
  11.000   1.2912   0.01640   0.00898  -0.0007  0.0132  0.0399  -3.3970   0.0000   0.2339
  11.200   1.3082   0.01668   0.00928  -0.0001  0.0132  0.0398  -3.4840   0.0000   0.2330
  11.400   1.3247   0.01696   0.00958   0.0007  0.0133  0.0398  -3.5729   0.0000   0.2322
  11.600   1.3408   0.01726   0.00990   0.0015  0.0133  0.0397  -3.6645   0.0000   0.2313
  11.800   1.3554   0.01756   0.01023   0.0025  0.0164  0.0454  -3.7557   0.0000   0.2302
  12.000   1.3665   0.01784   0.01053   0.0043  0.0164  0.0454  -3.8388   0.0000   0.2286
  12.200   1.3792   0.01818   0.01090   0.0056  0.0164  0.0453  -3.9298   0.0000   0.2273
  12.400   1.3927   0.01855   0.01130   0.0067  0.0164  0.0453  -4.0258   0.0000   0.2262
  12.600   1.4060   0.01896   0.01173   0.0078  0.0165  0.0452  -4.1220   0.0000   0.2251
  12.800   1.4188   0.01938   0.01218   0.0089  0.0199  0.0512  -4.2178   0.0000   0.2240
  13.000   1.4312   0.01984   0.01267   0.0100  0.0199  0.0511  -4.3158   0.0000   0.2229
  13.200   1.4431   0.02033   0.01318   0.0111  0.0199  0.0511  -4.4162   0.0000   0.2218
  13.400   1.4545   0.02085   0.01374   0.0122  0.0200  0.0510  -4.5159   0.0000   0.2207
  13.600   1.4654   0.02141   0.01433   0.0133  0.0200  0.0510  -4.6147   0.0000   0.2197
  13.800   1.4759   0.02201   0.01497   0.0144  0.0237  0.0573  -4.7127   0.0000   0.2186
  14.000   1.4858   0.02267   0.01566   0.0155  0.0237  0.0572  -4.8094   0.0000   0.2176
  14.200   1.4953   0.02338   0.01640   0.0164  0.0237  0.0572  -4.9066   0.0000   0.2166
  14.400   1.5041   0.02415   0.01721   0.0174  0.0238  0.0572  -5.0070   0.0000   0.2156
  14.600   1.5125   0.02499   0.01809   0.0183  0.0238  0.0571  -5.1062   0.0000   0.2147
  14.800   1.5202   0.02591   0.01905   0.0191  0.0278  0.0637  -5.2032   0.0000   0.2138
  15.000   1.5273   0.02692   0.02010   0.0199  0.0279  0.0637  -5.2986   0.0000   0.2129
  15.200   1.5338   0.02802   0.02125   0.0205  0.0279  0.0636  -5.3920   0.0000   0.2121
  15.400   1.5395   0.02924   0.02251   0.0211  0.0279  0.0636  -5.4822   0.0000   0.2113
  15.600   1.5445   0.03057   0.02388   0.0216  0.0279  0.0636  -5.5701   0.0000   0.2106
  15.800   1.5487   0.03204   0.02540   0.0219  0.0280  0.0635  -5.6548   0.0000   0.2099
  16.000   1.5520   0.03365   0.02706   0.0221  0.0280  0.0635  -5.7357   0.0000   0.2094
  16.200   1.5542   0.03543   0.02890   0.0222  0.0323  0.0704  -5.8121   0.0000   0.2088
  16.400   1.5556   0.03738   0.03091   0.0221  0.0323  0.0703  -5.8878   0.0000   0.2084
  16.600   1.5556   0.03955   0.03313   0.0219  0.0324  0.0703  -5.9593   0.0000   0.2080
  16.800   1.5542   0.04192   0.03557   0.0215  0.0324  0.0703  -6.0238   0.0000   0.2077
  17.000   1.5514   0.04455   0.03826   0.0210  0.0324  0.0703  -6.0812   0.0000   0.2075
  17.200   1.5470   0.04746   0.04123   0.0203  0.0324  0.0702  -6.1304   0.0000   0.2074
  17.400   1.5406   0.05068   0.04453   0.0194  0.0324  0.0702  -6.1693   0.0000   0.2074
  17.600   1.5321   0.05424   0.04816   0.0183  0.0324  0.0702  -6.1970   0.0000   0.2075
  17.800   1.5216   0.05817   0.05217   0.0170  0.0324  0.0702  -6.2131   0.0000   0.2077
  18.000   1.5088   0.06251   0.05659   0.0154  0.0324  0.0702  -6.2159   0.0000   0.2081
  18.200   1.4930   0.06727   0.06144   0.0137  0.0324  0.0702  -6.2024   0.0000   0.2085
  18.400   1.4749   0.07248   0.06674   0.0118  0.0324  0.0702  -6.1744   0.0000   0.2092
  18.600   1.4544   0.07812   0.07248   0.0097  0.0324  0.0702  -6.1312   0.0000   0.2100
  18.800   1.4312   0.08416   0.07861   0.0073  0.0324  0.0702  -6.0719   0.0000   0.2109
  19.000   1.4068   0.09054   0.08509   0.0048  0.0324  0.0702  -6.0015   0.0000   0.2121
  19.200   1.3814   0.09714   0.09179   0.0021  0.0324  0.0703  -5.9226   0.0000   0.2134
  19.400   1.3557   0.10383   0.09858  -0.0006  0.0324  0.0703  -5.8382   0.0000   0.2149
  19.600   1.3324   0.11030   0.10513  -0.0034  0.0323  0.0703  -5.7627   0.0000   0.2165
  19.800   1.3105   0.11665   0.11157  -0.0062  0.0323  0.0703  -5.6904   0.0000   0.2182
  20.000   1.2913   0.12256   0.11755  -0.0089  0.0323  0.0703  -5.6309   0.0000   0.2198
  20.200   1.2743   0.12825   0.12331  -0.0116  0.0323  0.0704  -5.5801   0.0000   0.2215
  20.400   1.2591   0.13373   0.12886  -0.0143  0.0323  0.0704  -5.5363   0.0000   0.2233
  20.600   1.2456   0.13900   0.13419  -0.0169  0.0323  0.0704  -5.4994   0.0000   0.2251
  20.800   1.2335   0.14403   0.13928  -0.0195  0.0323  0.0704  -5.4684   0.0000   0.2269
  21.000   1.2247   0.14852   0.14382  -0.0219  0.0323  0.0704  -5.4558   0.0000   0.2285
  21.200   1.2159   0.15311   0.14846  -0.0245  0.0323  0.0704  -5.4401   0.0000   0.2302
  21.400   1.2076   0.15766   0.15306  -0.0270  0.0323  0.0704  -5.4250   0.0000   0.2320
  21.600   1.2029   0.16159   0.15704  -0.0293  0.0323  0.0704  -5.4315   0.0000   0.2335
  21.800   1.1960   0.16599   0.16149  -0.0320  0.0323  0.0704  -5.4206   0.0000   0.2353
  22.000   1.1927   0.16972   0.16525  -0.0342  0.0323  0.0704  -5.4334   0.0000   0.2368
  22.200   1.1872   0.17393   0.16951  -0.0369  0.0369  0.0776  -5.4269   0.0000   0.2386
  22.400   1.1849   0.17745   0.17307  -0.0391  0.0369  0.0776  -5.4435   0.0000   0.2401
  22.600   1.1802   0.18152   0.17718  -0.0417  0.0369  0.0776  -5.4396   0.0000   0.2420
  22.800   1.1787   0.18497   0.18067  -0.0440  0.0369  0.0775  -5.4582   0.0000   0.2434
  23.000   1.1756   0.18881   0.18455  -0.0466  0.0369  0.0775  -5.4624   0.0000   0.2452
  23.200   1.1741   0.19233   0.18811  -0.0490  0.0369  0.0775  -5.4817   0.0000   0.2468
  23.400   1.1736   0.19565   0.19145  -0.0513  0.0370  0.0775  -5.5086   0.0000   0.2483
  23.600   1.1708   0.19953   0.19538  -0.0540  0.0370  0.0775  -5.5123   0.0000   0.2502
  23.800   1.1708   0.20277   0.19866  -0.0563  0.0370  0.0775  -5.5406   0.0000   0.2516
  24.000   1.1691   0.20646   0.20238  -0.0590  0.0370  0.0775  -5.5503   0.0000   0.2534
  24.200   1.1689   0.20983   0.20578  -0.0614  0.0370  0.0775  -5.5719   0.0000   0.2550
  24.400   1.1695   0.21299   0.20898  -0.0638  0.0370  0.0774  -5.6009   0.0000   0.2565
  24.600   1.1678   0.21675   0.21278  -0.0666  0.0419  0.0849  -5.6044   0.0000   0.2584
  24.800   1.1685   0.21993   0.21599  -0.0690  0.0420  0.0849  -5.6310   0.0000   0.2599
  25.000   1.1690   0.22318   0.21927  -0.0715  0.0420  0.0849  -5.6538   0.0000   0.2615


