xflr5 v6.47

 Calculated polar for: NACA 23015

 1 1 Reynolds number fixed          Mach number fixed         

 xtrf =   1.000 (top)        1.000 (bottom)
 Mach =   0.000     Re =     0.350 e 6     Ncrit =   0.100

  alpha     CL        CD       CDp       Cm    Top Xtr Bot Xtr   Cpmin    Chinge    XCp    
 ------- -------- --------- --------- -------- ------- ------- -------- --------- ---------
 -10.000  -0.8741   0.02403   0.01416  -0.0288  0.0654  0.0038  -5.7900   0.0000   0.2045
  -9.800  -0.8579   0.02357   0.01364  -0.0280  0.0655  0.0037  -5.6441   0.0000   0.2051
  -9.600  -0.8414   0.02314   0.01314  -0.0272  0.0657  0.0037  -5.4981   0.0000   0.2056
  -9.400  -0.8246   0.02272   0.01265  -0.0264  0.0588  0.0023  -5.3520   0.0000   0.2060
  -9.200  -0.8075   0.02232   0.01219  -0.0257  0.0589  0.0023  -5.2060   0.0000   0.2065
  -9.000  -0.7902   0.02193   0.01175  -0.0250  0.0590  0.0023  -5.0604   0.0000   0.2069
  -8.800  -0.7726   0.02156   0.01132  -0.0243  0.0591  0.0023  -4.9153   0.0000   0.2072
  -8.600  -0.7548   0.02120   0.01091  -0.0236  0.0592  0.0022  -4.7709   0.0000   0.2075
  -8.400  -0.7368   0.02085   0.01050  -0.0229  0.0526  0.0012  -4.6268   0.0000   0.2078
  -8.200  -0.7185   0.02052   0.01012  -0.0223  0.0527  0.0012  -4.4838   0.0000   0.2081
  -8.000  -0.7001   0.02021   0.00975  -0.0217  0.0528  0.0012  -4.3422   0.0000   0.2083
  -7.800  -0.6815   0.01990   0.00939  -0.0211  0.0530  0.0011  -4.2104   0.0000   0.2085
  -7.600  -0.6628   0.01961   0.00905  -0.0205  0.0531  0.0011  -4.0795   0.0000   0.2086
  -7.400  -0.6439   0.01932   0.00872  -0.0200  0.0469  0.0004  -3.9492   0.0000   0.2087
  -7.200  -0.6248   0.01905   0.00840  -0.0194  0.0470  0.0004  -3.8201   0.0000   0.2087
  -7.000  -0.6056   0.01879   0.00810  -0.0189  0.0471  0.0004  -3.6920   0.0000   0.2087
  -6.800  -0.5863   0.01855   0.00781  -0.0184  0.0472  0.0004  -3.5650   0.0000   0.2087
  -6.600  -0.5668   0.01831   0.00753  -0.0179  0.0473  0.0004  -3.4391   0.0000   0.2086
  -6.400  -0.5473   0.01807   0.00725  -0.0174  0.0414  0.0000  -3.3138   0.0000   0.2085
  -6.200  -0.5276   0.01785   0.00699  -0.0170  0.0415  0.0000  -3.1909   0.0000   0.2082
  -6.000  -0.5077   0.01765   0.00675  -0.0165  0.0416  0.0000  -3.0697   0.0000   0.2079
  -5.800  -0.4877   0.01745   0.00651  -0.0161  0.0418  0.0000  -2.9497   0.0000   0.2076
  -5.600  -0.4677   0.01726   0.00629  -0.0157  0.0419  0.0000  -2.8311   0.0000   0.2071
  -5.400  -0.4476   0.01707   0.00606  -0.0152  0.0363  0.0001  -2.7168   0.0000   0.2066
  -5.200  -0.4273   0.01690   0.00586  -0.0149  0.0365  0.0001  -2.6008   0.0000   0.2060
  -5.000  -0.4070   0.01674   0.00566  -0.0145  0.0366  0.0001  -2.4862   0.0000   0.2052
  -4.800  -0.3865   0.01658   0.00548  -0.0141  0.0367  0.0001  -2.3736   0.0000   0.2043
  -4.600  -0.3660   0.01644   0.00530  -0.0138  0.0368  0.0001  -2.2700   0.0000   0.2033
  -4.400  -0.3454   0.01629   0.00512  -0.0134  0.0316  0.0005  -2.1711   0.0000   0.2021
  -4.200  -0.3247   0.01616   0.00497  -0.0131  0.0317  0.0005  -2.0701   0.0000   0.2006
  -4.000  -0.3039   0.01604   0.00482  -0.0128  0.0318  0.0005  -1.9704   0.0000   0.1989
  -3.800  -0.2831   0.01593   0.00468  -0.0125  0.0319  0.0005  -1.8720   0.0000   0.1968
  -3.600  -0.2621   0.01582   0.00455  -0.0122  0.0320  0.0005  -1.7751   0.0000   0.1944
  -3.400  -0.2412   0.01572   0.00441  -0.0119  0.0272  0.0014  -1.6820   0.0000   0.1915
  -3.200  -0.2202   0.01563   0.00430  -0.0116  0.0273  0.0014  -1.5871   0.0000   0.1879
  -3.000  -0.1990   0.01555   0.00419  -0.0113  0.0274  0.0014  -1.4937   0.0000   0.1835
  -2.800  -0.1779   0.01547   0.00409  -0.0111  0.0275  0.0014  -1.4089   0.0000   0.1780
  -2.600  -0.1568   0.01539   0.00399  -0.0108  0.0230  0.0028  -1.3298   0.0000   0.1710
  -2.400  -0.1355   0.01533   0.00391  -0.0106  0.0231  0.0028  -1.2472   0.0000   0.1616
  -2.200  -0.1142   0.01528   0.00383  -0.0103  0.0232  0.0028  -1.1660   0.0000   0.1485
  -2.000  -0.0929   0.01523   0.00377  -0.0101  0.0233  0.0028  -1.0861   0.0000   0.1293
  -1.800  -0.0715   0.01518   0.00370  -0.0099  0.0234  0.0028  -1.0077   0.0000   0.0985
  -1.600  -0.0502   0.01514   0.00364  -0.0097  0.0192  0.0047  -0.9375   0.0000   0.0419
  -1.400  -0.0288   0.01511   0.00360  -0.0094  0.0193  0.0048  -0.8674   0.0000  -0.1005
  -1.200  -0.0073   0.01509   0.00356  -0.0092  0.0194  0.0048  -0.7984   0.0000  -1.0816
  -1.000   0.0142   0.01507   0.00353  -0.0090  0.0195  0.0048  -0.7307   0.0000   0.9109
  -0.800   0.0356   0.01506   0.00350  -0.0089  0.0196  0.0048  -0.6974   0.0000   0.5028
  -0.600   0.0571   0.01505   0.00347  -0.0086  0.0157  0.0074  -0.7244   0.0000   0.4015
  -0.400   0.0786   0.01505   0.00346  -0.0085  0.0158  0.0074  -0.7517   0.0000   0.3556
  -0.200   0.1001   0.01506   0.00346  -0.0083  0.0159  0.0074  -0.7792   0.0000   0.3295
   0.000   0.1216   0.01507   0.00346  -0.0081  0.0160  0.0074  -0.8069   0.0000   0.3126
   0.200   0.1431   0.01509   0.00347  -0.0079  0.0161  0.0074  -0.8356   0.0000   0.3007
   0.400   0.1645   0.01511   0.00348  -0.0077  0.0126  0.0107  -0.8648   0.0000   0.2919
   0.600   0.1860   0.01514   0.00350  -0.0075  0.0127  0.0107  -0.8942   0.0000   0.2852
   0.800   0.2075   0.01518   0.00353  -0.0074  0.0127  0.0106  -0.9238   0.0000   0.2799
   1.000   0.2289   0.01522   0.00356  -0.0072  0.0128  0.0106  -0.9536   0.0000   0.2755
   1.200   0.2503   0.01526   0.00360  -0.0070  0.0097  0.0147  -0.9842   0.0000   0.2718
   1.400   0.2717   0.01531   0.00365  -0.0068  0.0097  0.0146  -1.0157   0.0000   0.2688
   1.600   0.2931   0.01537   0.00370  -0.0066  0.0098  0.0145  -1.0473   0.0000   0.2661
   1.800   0.3145   0.01543   0.00376  -0.0064  0.0098  0.0145  -1.0791   0.0000   0.2638
   2.000   0.3358   0.01550   0.00382  -0.0063  0.0099  0.0144  -1.1111   0.0000   0.2618
   2.200   0.3570   0.01557   0.00390  -0.0061  0.0072  0.0191  -1.1438   0.0000   0.2600
   2.400   0.3783   0.01565   0.00398  -0.0059  0.0072  0.0190  -1.1775   0.0000   0.2584
   2.600   0.3995   0.01573   0.00406  -0.0057  0.0072  0.0189  -1.2115   0.0000   0.2569
   2.800   0.4207   0.01582   0.00415  -0.0055  0.0073  0.0188  -1.2456   0.0000   0.2556
   3.000   0.4418   0.01591   0.00425  -0.0053  0.0073  0.0186  -1.2798   0.0000   0.2543
   3.200   0.4628   0.01601   0.00436  -0.0051  0.0050  0.0239  -1.3147   0.0000   0.2531
   3.400   0.4838   0.01612   0.00447  -0.0049  0.0051  0.0237  -1.3509   0.0000   0.2521
   3.600   0.5047   0.01623   0.00459  -0.0046  0.0051  0.0235  -1.3871   0.0000   0.2511
   3.800   0.5256   0.01634   0.00471  -0.0044  0.0051  0.0234  -1.4236   0.0000   0.2501
   4.000   0.5464   0.01647   0.00485  -0.0042  0.0032  0.0291  -1.4600   0.0000   0.2492
   4.200   0.5671   0.01659   0.00499  -0.0039  0.0033  0.0289  -1.4976   0.0000   0.2483
   4.400   0.5877   0.01673   0.00513  -0.0037  0.0033  0.0287  -1.5361   0.0000   0.2475
   4.600   0.6083   0.01687   0.00528  -0.0034  0.0033  0.0285  -1.5748   0.0000   0.2467
   4.800   0.6288   0.01701   0.00544  -0.0032  0.0033  0.0283  -1.6136   0.0000   0.2459
   5.000   0.6491   0.01716   0.00562  -0.0029  0.0019  0.0343  -1.6523   0.0000   0.2451
   5.200   0.6694   0.01732   0.00579  -0.0026  0.0019  0.0341  -1.6929   0.0000   0.2443
   5.400   0.6895   0.01749   0.00597  -0.0023  0.0019  0.0338  -1.7339   0.0000   0.2436
   5.600   0.7096   0.01766   0.00616  -0.0020  0.0019  0.0336  -1.7749   0.0000   0.2429
   5.800   0.7295   0.01784   0.00637  -0.0017  0.0009  0.0400  -1.8158   0.0000   0.2421
   6.000   0.7492   0.01802   0.00657  -0.0013  0.0008  0.0398  -1.8579   0.0000   0.2414
   6.200   0.7689   0.01821   0.00679  -0.0010  0.0008  0.0395  -1.9012   0.0000   0.2407
   6.400   0.7884   0.01841   0.00701  -0.0006  0.0008  0.0392  -1.9445   0.0000   0.2400
   6.600   0.8078   0.01862   0.00724  -0.0002  0.0008  0.0390  -1.9877   0.0000   0.2393
   6.800   0.8269   0.01884   0.00749   0.0002  0.0002  0.0457  -2.0316   0.0000   0.2386
   7.000   0.8459   0.01906   0.00774   0.0006  0.0002  0.0454  -2.0771   0.0000   0.2378
   7.200   0.8647   0.01929   0.00800   0.0011  0.0002  0.0451  -2.1226   0.0000   0.2371
   7.400   0.8833   0.01953   0.00827   0.0016  0.0002  0.0449  -2.1679   0.0000   0.2364
   7.600   0.9017   0.01978   0.00855   0.0020  0.0002  0.0446  -2.2144   0.0000   0.2356
   7.800   0.9198   0.02004   0.00886   0.0026  0.0000  0.0516  -2.2619   0.0000   0.2348
   8.000   0.9376   0.02031   0.00916   0.0031  0.0000  0.0513  -2.3093   0.0000   0.2340
   8.200   0.9552   0.02059   0.00948   0.0037  0.0000  0.0510  -2.3566   0.0000   0.2332
   8.400   0.9725   0.02088   0.00980   0.0044  0.0000  0.0508  -2.4061   0.0000   0.2324
   8.600   0.9894   0.02119   0.01016   0.0050  0.0002  0.0580  -2.4552   0.0000   0.2315
   8.800   1.0059   0.02150   0.01051   0.0057  0.0002  0.0578  -2.5041   0.0000   0.2306
   9.000   1.0221   0.02182   0.01088   0.0065  0.0002  0.0575  -2.5551   0.0000   0.2297
   9.200   1.0378   0.02217   0.01126   0.0073  0.0002  0.0572  -2.6058   0.0000   0.2287
   9.400   1.0525   0.02251   0.01165   0.0083  0.0002  0.0569  -2.6558   0.0000   0.2276
   9.600   1.0656   0.02287   0.01206   0.0095  0.0007  0.0645  -2.7055   0.0000   0.2263
   9.800   1.0781   0.02324   0.01248   0.0108  0.0007  0.0643  -2.7544   0.0000   0.2249
  10.000   1.0912   0.02366   0.01295   0.0120  0.0007  0.0640  -2.8068   0.0000   0.2237
  10.200   1.1044   0.02412   0.01345   0.0130  0.0007  0.0637  -2.8598   0.0000   0.2226
  10.400   1.1173   0.02461   0.01399   0.0140  0.0007  0.0635  -2.9153   0.0000   0.2215
  10.600   1.1298   0.02514   0.01458   0.0150  0.0016  0.0713  -2.9711   0.0000   0.2204
  10.800   1.1419   0.02569   0.01520   0.0159  0.0016  0.0710  -3.0286   0.0000   0.2194
  11.000   1.1534   0.02629   0.01585   0.0169  0.0016  0.0708  -3.0879   0.0000   0.2184
  11.200   1.1645   0.02694   0.01655   0.0178  0.0016  0.0706  -3.1480   0.0000   0.2174
  11.400   1.1751   0.02763   0.01730   0.0187  0.0016  0.0703  -3.2099   0.0000   0.2164
  11.600   1.1851   0.02837   0.01811   0.0196  0.0017  0.0700  -3.2732   0.0000   0.2154
  11.800   1.1944   0.02919   0.01900   0.0204  0.0028  0.0782  -3.3363   0.0000   0.2145
  12.000   1.2033   0.03007   0.01995   0.0212  0.0028  0.0779  -3.4011   0.0000   0.2136
  12.200   1.2115   0.03103   0.02098   0.0219  0.0028  0.0777  -3.4656   0.0000   0.2128
  12.400   1.2191   0.03208   0.02209   0.0225  0.0029  0.0775  -3.5288   0.0000   0.2120
  12.600   1.2261   0.03322   0.02331   0.0231  0.0029  0.0773  -3.5943   0.0000   0.2113
  12.800   1.2323   0.03447   0.02464   0.0235  0.0029  0.0770  -3.6576   0.0000   0.2106
  13.000   1.2377   0.03586   0.02611   0.0238  0.0043  0.0854  -3.7183   0.0000   0.2100
  13.200   1.2424   0.03738   0.02771   0.0240  0.0043  0.0852  -3.7776   0.0000   0.2095
  13.400   1.2462   0.03905   0.02946   0.0240  0.0044  0.0851  -3.8374   0.0000   0.2091
  13.600   1.2492   0.04088   0.03137   0.0239  0.0044  0.0849  -3.8937   0.0000   0.2088
  13.800   1.2512   0.04289   0.03348   0.0237  0.0044  0.0847  -3.9464   0.0000   0.2086
  14.000   1.2520   0.04511   0.03579   0.0232  0.0044  0.0846  -3.9946   0.0000   0.2085
  14.200   1.2515   0.04755   0.03832   0.0226  0.0045  0.0845  -4.0376   0.0000   0.2085
  14.400   1.2496   0.05027   0.04115   0.0218  0.0061  0.0930  -4.0746   0.0000   0.2086
  14.600   1.2464   0.05322   0.04420   0.0209  0.0061  0.0929  -4.1089   0.0000   0.2089
  14.800   1.2416   0.05645   0.04753   0.0198  0.0061  0.0928  -4.1364   0.0000   0.2092
  15.000   1.2352   0.05997   0.05116   0.0185  0.0061  0.0928  -4.1564   0.0000   0.2097
  15.200   1.2273   0.06379   0.05509   0.0170  0.0062  0.0927  -4.1688   0.0000   0.2103
  15.400   1.2177   0.06791   0.05932   0.0154  0.0062  0.0927  -4.1728   0.0000   0.2110
  15.600   1.2065   0.07232   0.06384   0.0137  0.0062  0.0926  -4.1689   0.0000   0.2119
  15.800   1.1942   0.07700   0.06864   0.0118  0.0062  0.0926  -4.1579   0.0000   0.2129
  16.000   1.1808   0.08189   0.07364   0.0098  0.0061  0.0926  -4.1402   0.0000   0.2140
  16.200   1.1668   0.08695   0.07881   0.0077  0.0061  0.0926  -4.1175   0.0000   0.2152
  16.400   1.1527   0.09209   0.08405   0.0056  0.0061  0.0926  -4.0925   0.0000   0.2165
  16.600   1.1389   0.09724   0.08931   0.0034  0.0061  0.0927  -4.0665   0.0000   0.2179
  16.800   1.1254   0.10235   0.09452   0.0013  0.0061  0.0927  -4.0401   0.0000   0.2194
  17.000   1.1129   0.10740   0.09966  -0.0009  0.0061  0.0927  -4.0155   0.0000   0.2209
  17.200   1.1014   0.11232   0.10467  -0.0030  0.0061  0.0927  -3.9941   0.0000   0.2224
  17.400   1.0910   0.11711   0.10955  -0.0051  0.0061  0.0927  -3.9755   0.0000   0.2240
  17.600   1.0815   0.12177   0.11429  -0.0072  0.0061  0.0927  -3.9595   0.0000   0.2255
  17.800   1.0731   0.12629   0.11889  -0.0093  0.0061  0.0927  -3.9469   0.0000   0.2271
  18.000   1.0659   0.13066   0.12334  -0.0114  0.0061  0.0927  -3.9387   0.0000   0.2287
  18.200   1.0594   0.13495   0.12770  -0.0134  0.0061  0.0926  -3.9347   0.0000   0.2303
  18.400   1.0536   0.13916   0.13198  -0.0155  0.0061  0.0926  -3.9325   0.0000   0.2320
  18.600   1.0488   0.14319   0.13607  -0.0175  0.0061  0.0926  -3.9343   0.0000   0.2335
  18.800   1.0444   0.14719   0.14014  -0.0196  0.0061  0.0925  -3.9366   0.0000   0.2352
  19.000   1.0408   0.15108   0.14409  -0.0216  0.0061  0.0925  -3.9418   0.0000   0.2368
  19.200   1.0376   0.15492   0.14800  -0.0237  0.0079  0.1013  -3.9481   0.0000   0.2384
  19.400   1.0350   0.15870   0.15184  -0.0258  0.0080  0.1012  -3.9557   0.0000   0.2401
  19.600   1.0329   0.16241   0.15561  -0.0278  0.0080  0.1012  -3.9648   0.0000   0.2417
  19.800   1.0311   0.16610   0.15935  -0.0299  0.0080  0.1011  -3.9738   0.0000   0.2434
  20.000   1.0298   0.16970   0.16302  -0.0320  0.0080  0.1011  -3.9846   0.0000   0.2451
  20.200   1.0288   0.17327   0.16664  -0.0342  0.0080  0.1010  -3.9956   0.0000   0.2468
  20.400   1.0278   0.17682   0.17024  -0.0363  0.0080  0.1009  -4.0060   0.0000   0.2484
  20.600   1.0275   0.18027   0.17375  -0.0384  0.0080  0.1009  -4.0190   0.0000   0.2501
  20.800   1.0269   0.18381   0.17735  -0.0406  0.0080  0.1008  -4.0282   0.0000   0.2518
  21.000   1.0272   0.18721   0.18080  -0.0427  0.0080  0.1008  -4.0417   0.0000   0.2535
  21.200   1.0270   0.19072   0.18436  -0.0450  0.0080  0.1007  -4.0537   0.0000   0.2553
  21.400   1.0275   0.19412   0.18782  -0.0472  0.0080  0.1006  -4.0697   0.0000   0.2570
  21.600   1.0277   0.19760   0.19136  -0.0495  0.0102  0.1096  -4.0824   0.0000   0.2587
  21.800   1.0283   0.20103   0.19484  -0.0517  0.0102  0.1095  -4.0958   0.0000   0.2605
  22.000   1.0291   0.20442   0.19828  -0.0540  0.0102  0.1095  -4.1097   0.0000   0.2622
  22.200   1.0299   0.20787   0.20178  -0.0564  0.0102  0.1094  -4.1204   0.0000   0.2640
  22.400   1.0310   0.21122   0.20518  -0.0587  0.0102  0.1093  -4.1337   0.0000   0.2658
  22.600   1.0320   0.21466   0.20867  -0.0610  0.0102  0.1093  -4.1427   0.0000   0.2676
  22.800   1.0332   0.21804   0.21211  -0.0634  0.0102  0.1092  -4.1525   0.0000   0.2694
  23.000   1.0344   0.22146   0.21558  -0.0658  0.0102  0.1092  -4.1598   0.0000   0.2712
  23.200   1.0356   0.22487   0.21903  -0.0682  0.0102  0.1091  -4.1660   0.0000   0.2730
  23.400   1.0372   0.22818   0.22240  -0.0706  0.0102  0.1091  -4.1739   0.0000   0.2747
  23.600   1.0386   0.23158   0.22585  -0.0730  0.0102  0.1090  -4.1771   0.0000   0.2766
  23.800   1.0404   0.23489   0.22920  -0.0754  0.0126  0.1181  -4.1829   0.0000   0.2783
  24.000   1.0421   0.23825   0.23262  -0.0779  0.0127  0.1181  -4.1847   0.0000   0.2801
  24.200   1.0441   0.24155   0.23596  -0.0803  0.0127  0.1180  -4.1881   0.0000   0.2818
  24.400   1.0461   0.24485   0.23931  -0.0827  0.0127  0.1180  -4.1903   0.0000   0.2836
  24.600   1.0482   0.24818   0.24269  -0.0852  0.0127  0.1179  -4.1949   0.0000   0.2853
  24.800   1.0505   0.25142   0.24597  -0.0876  0.0127  0.1179  -4.2020   0.0000   0.2870
  25.000   1.0527   0.25476   0.24936  -0.0901  0.0127  0.1178  -4.2032   0.0000   0.2887


