xflr5 v6.47

 Calculated polar for: NACA 23015

 1 1 Reynolds number fixed          Mach number fixed         

 xtrf =   1.000 (top)        1.000 (bottom)
 Mach =   0.000     Re =     0.250 e 6     Ncrit =   0.100

  alpha     CL        CD       CDp       Cm    Top Xtr Bot Xtr   Cpmin    Chinge    XCp    
 ------- -------- --------- --------- -------- ------- ------- -------- --------- ---------
 -10.000  -0.8575   0.02651   0.01613  -0.0307  0.0750  0.0021  -5.6672   0.0000   0.2016
  -9.800  -0.8420   0.02599   0.01553  -0.0298  0.0752  0.0021  -5.5285   0.0000   0.2022
  -9.600  -0.8262   0.02547   0.01492  -0.0290  0.0677  0.0011  -5.3919   0.0000   0.2027
  -9.400  -0.8100   0.02498   0.01436  -0.0282  0.0678  0.0010  -5.2523   0.0000   0.2032
  -9.200  -0.7935   0.02452   0.01382  -0.0274  0.0680  0.0010  -5.1127   0.0000   0.2037
  -9.000  -0.7766   0.02407   0.01330  -0.0266  0.0681  0.0010  -4.9731   0.0000   0.2041
  -8.800  -0.7595   0.02364   0.01280  -0.0259  0.0682  0.0010  -4.8338   0.0000   0.2044
  -8.600  -0.7422   0.02323   0.01232  -0.0252  0.0684  0.0010  -4.6949   0.0000   0.2048
  -8.400  -0.7248   0.02281   0.01183  -0.0245  0.0612  0.0003  -4.5607   0.0000   0.2051
  -8.200  -0.7070   0.02244   0.01140  -0.0238  0.0614  0.0003  -4.4219   0.0000   0.2053
  -8.000  -0.6890   0.02207   0.01098  -0.0232  0.0615  0.0003  -4.2838   0.0000   0.2056
  -7.800  -0.6709   0.02173   0.01057  -0.0225  0.0617  0.0003  -4.1487   0.0000   0.2057
  -7.600  -0.6525   0.02140   0.01018  -0.0219  0.0618  0.0003  -4.0224   0.0000   0.2059
  -7.400  -0.6342   0.02106   0.00978  -0.0213  0.0550  0.0000  -3.9016   0.0000   0.2060
  -7.200  -0.6155   0.02075   0.00943  -0.0207  0.0552  0.0000  -3.7766   0.0000   0.2061
  -7.000  -0.5967   0.02046   0.00908  -0.0202  0.0553  0.0000  -3.6526   0.0000   0.2061
  -6.800  -0.5778   0.02017   0.00875  -0.0196  0.0554  0.0000  -3.5295   0.0000   0.2061
  -6.600  -0.5587   0.01990   0.00843  -0.0191  0.0556  0.0000  -3.4075   0.0000   0.2060
  -6.400  -0.5397   0.01963   0.00810  -0.0185  0.0492  0.0001  -3.2891   0.0000   0.2059
  -6.200  -0.5203   0.01939   0.00781  -0.0180  0.0493  0.0001  -3.1680   0.0000   0.2057
  -6.000  -0.5008   0.01915   0.00754  -0.0175  0.0494  0.0001  -3.0482   0.0000   0.2054
  -5.800  -0.4812   0.01893   0.00727  -0.0170  0.0496  0.0001  -2.9295   0.0000   0.2051
  -5.600  -0.4616   0.01872   0.00702  -0.0166  0.0497  0.0001  -2.8122   0.0000   0.2046
  -5.400  -0.4420   0.01849   0.00675  -0.0161  0.0436  0.0006  -2.6992   0.0000   0.2042
  -5.200  -0.4220   0.01830   0.00652  -0.0157  0.0438  0.0006  -2.5829   0.0000   0.2036
  -5.000  -0.4020   0.01812   0.00630  -0.0152  0.0439  0.0006  -2.4720   0.0000   0.2028
  -4.800  -0.3818   0.01795   0.00610  -0.0148  0.0440  0.0006  -2.3676   0.0000   0.2019
  -4.600  -0.3616   0.01779   0.00590  -0.0144  0.0442  0.0006  -2.2645   0.0000   0.2008
  -4.400  -0.3415   0.01762   0.00569  -0.0140  0.0385  0.0016  -2.1658   0.0000   0.1997
  -4.200  -0.3211   0.01748   0.00551  -0.0137  0.0386  0.0016  -2.0650   0.0000   0.1983
  -4.000  -0.3006   0.01735   0.00535  -0.0133  0.0387  0.0016  -1.9653   0.0000   0.1965
  -3.800  -0.2800   0.01722   0.00519  -0.0130  0.0389  0.0016  -1.8660   0.0000   0.1945
  -3.600  -0.2594   0.01710   0.00504  -0.0126  0.0390  0.0016  -1.7681   0.0000   0.1920
  -3.400  -0.2388   0.01698   0.00489  -0.0123  0.0336  0.0031  -1.6710   0.0000   0.1892
  -3.200  -0.2180   0.01689   0.00476  -0.0120  0.0337  0.0031  -1.5811   0.0000   0.1856
  -3.000  -0.1972   0.01680   0.00464  -0.0117  0.0339  0.0031  -1.4953   0.0000   0.1812
  -2.800  -0.1762   0.01671   0.00453  -0.0114  0.0340  0.0032  -1.4107   0.0000   0.1757
  -2.600  -0.1554   0.01663   0.00441  -0.0110  0.0290  0.0052  -1.3256   0.0000   0.1687
  -2.400  -0.1344   0.01656   0.00432  -0.0108  0.0291  0.0053  -1.2427   0.0000   0.1593
  -2.200  -0.1133   0.01650   0.00423  -0.0105  0.0292  0.0053  -1.1613   0.0000   0.1461
  -2.000  -0.0922   0.01645   0.00416  -0.0102  0.0293  0.0053  -1.0817   0.0000   0.1269
  -1.800  -0.0711   0.01641   0.00409  -0.0100  0.0295  0.0053  -1.0096   0.0000   0.0961
  -1.600  -0.0500   0.01636   0.00402  -0.0097  0.0248  0.0081  -0.9370   0.0000   0.0399
  -1.400  -0.0288   0.01633   0.00397  -0.0095  0.0249  0.0081  -0.8665   0.0000  -0.1010
  -1.200  -0.0076   0.01631   0.00392  -0.0092  0.0250  0.0081  -0.7972   0.0000  -1.0327
  -1.000   0.0137   0.01629   0.00389  -0.0090  0.0251  0.0081  -0.7305   0.0000   0.9327
  -0.800   0.0349   0.01629   0.00386  -0.0088  0.0252  0.0082  -0.6963   0.0000   0.5061
  -0.600   0.0561   0.01627   0.00383  -0.0085  0.0208  0.0117  -0.7232   0.0000   0.4023
  -0.400   0.0774   0.01628   0.00381  -0.0083  0.0210  0.0117  -0.7503   0.0000   0.3555
  -0.200   0.0987   0.01629   0.00381  -0.0081  0.0211  0.0117  -0.7776   0.0000   0.3289
   0.000   0.1200   0.01631   0.00381  -0.0079  0.0212  0.0117  -0.8050   0.0000   0.3117
   0.200   0.1413   0.01633   0.00382  -0.0077  0.0213  0.0117  -0.8334   0.0000   0.2997
   0.400   0.1624   0.01635   0.00383  -0.0074  0.0172  0.0161  -0.8623   0.0000   0.2908
   0.600   0.1837   0.01639   0.00385  -0.0072  0.0173  0.0161  -0.8916   0.0000   0.2840
   0.800   0.2050   0.01643   0.00388  -0.0070  0.0174  0.0160  -0.9209   0.0000   0.2786
   1.000   0.2262   0.01647   0.00392  -0.0068  0.0175  0.0160  -0.9505   0.0000   0.2742
   1.200   0.2473   0.01652   0.00396  -0.0066  0.0138  0.0213  -0.9807   0.0000   0.2704
   1.400   0.2685   0.01658   0.00401  -0.0064  0.0139  0.0211  -1.0119   0.0000   0.2673
   1.600   0.2897   0.01664   0.00407  -0.0061  0.0140  0.0210  -1.0433   0.0000   0.2647
   1.800   0.3108   0.01671   0.00414  -0.0059  0.0141  0.0209  -1.0748   0.0000   0.2624
   2.000   0.3319   0.01679   0.00421  -0.0057  0.0141  0.0208  -1.1065   0.0000   0.2603
   2.200   0.3529   0.01687   0.00429  -0.0055  0.0108  0.0267  -1.1387   0.0000   0.2584
   2.400   0.3739   0.01695   0.00438  -0.0052  0.0109  0.0265  -1.1722   0.0000   0.2568
   2.600   0.3949   0.01705   0.00447  -0.0050  0.0109  0.0263  -1.2058   0.0000   0.2553
   2.800   0.4158   0.01714   0.00457  -0.0048  0.0110  0.0261  -1.2395   0.0000   0.2540
   3.000   0.4367   0.01725   0.00468  -0.0045  0.0111  0.0259  -1.2735   0.0000   0.2527
   3.200   0.4574   0.01736   0.00480  -0.0043  0.0082  0.0323  -1.3078   0.0000   0.2515
   3.400   0.4781   0.01747   0.00492  -0.0040  0.0082  0.0321  -1.3436   0.0000   0.2504
   3.600   0.4988   0.01760   0.00505  -0.0038  0.0083  0.0318  -1.3795   0.0000   0.2494
   3.800   0.5194   0.01772   0.00518  -0.0035  0.0083  0.0316  -1.4156   0.0000   0.2484
   4.200   0.5603   0.01800   0.00549  -0.0030  0.0059  0.0381  -1.4885   0.0000   0.2466
   4.400   0.5807   0.01815   0.00565  -0.0027  0.0059  0.0378  -1.5266   0.0000   0.2458
   4.600   0.6010   0.01830   0.00582  -0.0024  0.0059  0.0375  -1.5648   0.0000   0.2449
   4.800   0.6212   0.01846   0.00599  -0.0021  0.0060  0.0372  -1.6032   0.0000   0.2441
   5.000   0.6411   0.01863   0.00619  -0.0017  0.0039  0.0444  -1.6415   0.0000   0.2433
   5.200   0.6611   0.01880   0.00638  -0.0014  0.0039  0.0440  -1.6812   0.0000   0.2426
   5.400   0.6809   0.01898   0.00658  -0.0011  0.0039  0.0436  -1.7216   0.0000   0.2418
   5.600   0.7006   0.01917   0.00679  -0.0007  0.0039  0.0433  -1.7622   0.0000   0.2411
   5.800   0.7202   0.01936   0.00701  -0.0004  0.0040  0.0429  -1.8028   0.0000   0.2403
   6.000   0.7396   0.01957   0.00726   0.0000  0.0023  0.0504  -1.8435   0.0000   0.2396
   6.200   0.7588   0.01978   0.00749   0.0004  0.0023  0.0500  -1.8862   0.0000   0.2388
   6.400   0.7780   0.02000   0.00774   0.0008  0.0023  0.0496  -1.9288   0.0000   0.2381
   6.600   0.7969   0.02023   0.00799   0.0013  0.0023  0.0493  -1.9715   0.0000   0.2374
   6.800   0.8156   0.02047   0.00828   0.0018  0.0012  0.0570  -2.0141   0.0000   0.2366
   7.000   0.8341   0.02072   0.00856   0.0022  0.0012  0.0566  -2.0587   0.0000   0.2359
   7.200   0.8525   0.02097   0.00885   0.0027  0.0011  0.0562  -2.1034   0.0000   0.2351
   7.400   0.8706   0.02123   0.00914   0.0033  0.0011  0.0558  -2.1480   0.0000   0.2343
   7.600   0.8885   0.02151   0.00945   0.0038  0.0011  0.0554  -2.1928   0.0000   0.2336
   7.800   0.9059   0.02180   0.00980   0.0044  0.0004  0.0634  -2.2392   0.0000   0.2327
   8.000   0.9232   0.02210   0.01014   0.0050  0.0004  0.0630  -2.2856   0.0000   0.2319
   8.200   0.9402   0.02241   0.01049   0.0057  0.0004  0.0626  -2.3318   0.0000   0.2310
   8.400   0.9569   0.02273   0.01085   0.0064  0.0004  0.0622  -2.3792   0.0000   0.2302
   8.600   0.9731   0.02306   0.01122   0.0071  0.0004  0.0618  -2.4272   0.0000   0.2293
   8.800   0.9888   0.02342   0.01164   0.0079  0.0000  0.0700  -2.4744   0.0000   0.2283
   9.000   1.0041   0.02378   0.01205   0.0088  0.0000  0.0696  -2.5228   0.0000   0.2273
   9.200   1.0183   0.02415   0.01247   0.0098  0.0000  0.0693  -2.5708   0.0000   0.2261
   9.400   1.0313   0.02453   0.01290   0.0110  0.0000  0.0689  -2.6171   0.0000   0.2248
   9.600   1.0437   0.02493   0.01335   0.0123  0.0000  0.0686  -2.6646   0.0000   0.2234
   9.800   1.0562   0.02539   0.01388   0.0134  0.0001  0.0770  -2.7130   0.0000   0.2222
  10.000   1.0691   0.02588   0.01443   0.0144  0.0001  0.0766  -2.7630   0.0000   0.2211
  10.200   1.0816   0.02640   0.01501   0.0154  0.0001  0.0763  -2.8143   0.0000   0.2200
  10.400   1.0938   0.02696   0.01563   0.0164  0.0001  0.0760  -2.8660   0.0000   0.2190
  10.600   1.1055   0.02756   0.01629   0.0173  0.0001  0.0757  -2.9188   0.0000   0.2179
  10.800   1.1164   0.02822   0.01702   0.0183  0.0005  0.0843  -2.9723   0.0000   0.2169
  11.000   1.1271   0.02891   0.01777   0.0192  0.0005  0.0839  -3.0263   0.0000   0.2159
  11.200   1.1372   0.02965   0.01858   0.0201  0.0005  0.0836  -3.0825   0.0000   0.2149
  11.400   1.1467   0.03045   0.01946   0.0209  0.0005  0.0833  -3.1390   0.0000   0.2140
  11.600   1.1556   0.03132   0.02040   0.0217  0.0005  0.0830  -3.1961   0.0000   0.2131
  11.800   1.1639   0.03227   0.02143   0.0224  0.0006  0.0827  -3.2543   0.0000   0.2122
  12.000   1.1713   0.03333   0.02257   0.0231  0.0013  0.0916  -3.3116   0.0000   0.2114
  12.200   1.1783   0.03446   0.02378   0.0236  0.0013  0.0913  -3.3697   0.0000   0.2107
  12.400   1.1846   0.03570   0.02510   0.0240  0.0013  0.0910  -3.4277   0.0000   0.2100
  12.600   1.1902   0.03705   0.02654   0.0244  0.0013  0.0908  -3.4835   0.0000   0.2094
  12.800   1.1950   0.03854   0.02811   0.0246  0.0013  0.0905  -3.5393   0.0000   0.2089
  13.000   1.1990   0.04017   0.02983   0.0247  0.0014  0.0903  -3.5937   0.0000   0.2085
  13.200   1.2017   0.04200   0.03177   0.0246  0.0024  0.0993  -3.6443   0.0000   0.2082
  13.400   1.2038   0.04398   0.03384   0.0243  0.0024  0.0991  -3.6920   0.0000   0.2080
  13.600   1.2048   0.04616   0.03612   0.0239  0.0024  0.0989  -3.7367   0.0000   0.2079
  13.800   1.2046   0.04855   0.03861   0.0234  0.0024  0.0988  -3.7793   0.0000   0.2079
  14.000   1.2032   0.05118   0.04134   0.0226  0.0024  0.0986  -3.8167   0.0000   0.2081
  14.200   1.2004   0.05407   0.04434   0.0217  0.0024  0.0984  -3.8484   0.0000   0.2083
  14.400   1.1961   0.05722   0.04761   0.0206  0.0025  0.0983  -3.8733   0.0000   0.2087
  14.600   1.1902   0.06067   0.05117   0.0193  0.0025  0.0982  -3.8913   0.0000   0.2092
  14.800   1.1828   0.06443   0.05504   0.0178  0.0025  0.0981  -3.9020   0.0000   0.2099
  15.000   1.1736   0.06849   0.05922   0.0162  0.0025  0.0981  -3.9046   0.0000   0.2107
  15.200   1.1630   0.07287   0.06372   0.0144  0.0025  0.0980  -3.8995   0.0000   0.2116
  15.400   1.1510   0.07755   0.06852   0.0125  0.0025  0.0980  -3.8870   0.0000   0.2127
  15.600   1.1376   0.08250   0.07359   0.0104  0.0025  0.0980  -3.8684   0.0000   0.2139
  15.800   1.1234   0.08766   0.07888   0.0082  0.0024  0.0980  -3.8435   0.0000   0.2153
  16.000   1.1088   0.09298   0.08431   0.0059  0.0024  0.0981  -3.8145   0.0000   0.2168
  16.200   1.0942   0.09835   0.08980   0.0036  0.0024  0.0981  -3.7830   0.0000   0.2185
  16.400   1.0797   0.10375   0.09531   0.0013  0.0024  0.0982  -3.7500   0.0000   0.2202
  16.600   1.0663   0.10905   0.10072  -0.0010  0.0024  0.0982  -3.7189   0.0000   0.2219
  16.800   1.0539   0.11427   0.10604  -0.0033  0.0024  0.0982  -3.6898   0.0000   0.2238
  17.000   1.0424   0.11935   0.11122  -0.0056  0.0024  0.0982  -3.6631   0.0000   0.2256
  17.200   1.0320   0.12429   0.11625  -0.0079  0.0024  0.0982  -3.6393   0.0000   0.2275
  17.400   1.0225   0.12916   0.12121  -0.0101  0.0036  0.1076  -3.6179   0.0000   0.2294
  17.600   1.0146   0.13377   0.12590  -0.0123  0.0036  0.1076  -3.6023   0.0000   0.2312
  17.800   1.0078   0.13826   0.13046  -0.0145  0.0036  0.1076  -3.5894   0.0000   0.2331
  18.000   1.0018   0.14261   0.13489  -0.0167  0.0036  0.1076  -3.5791   0.0000   0.2350
  18.200   0.9967   0.14681   0.13916  -0.0188  0.0036  0.1075  -3.5722   0.0000   0.2368
  18.400   0.9923   0.15094   0.14336  -0.0209  0.0036  0.1075  -3.5667   0.0000   0.2387
  18.600   0.9886   0.15499   0.14748  -0.0230  0.0036  0.1074  -3.5630   0.0000   0.2405
  18.800   0.9860   0.15887   0.15143  -0.0251  0.0036  0.1074  -3.5635   0.0000   0.2424
  19.000   0.9836   0.16272   0.15535  -0.0272  0.0036  0.1073  -3.5664   0.0000   0.2442
  19.200   0.9822   0.16641   0.15909  -0.0293  0.0036  0.1072  -3.5746   0.0000   0.2459
  19.400   0.9810   0.17010   0.16284  -0.0314  0.0036  0.1072  -3.5818   0.0000   0.2477
  19.600   0.9805   0.17363   0.16643  -0.0334  0.0036  0.1071  -3.5928   0.0000   0.2495
  19.800   0.9801   0.17718   0.17004  -0.0355  0.0036  0.1070  -3.6022   0.0000   0.2512
  20.000   0.9802   0.18062   0.17354  -0.0376  0.0036  0.1069  -3.6143   0.0000   0.2529
  20.200   0.9805   0.18405   0.17702  -0.0397  0.0036  0.1069  -3.6261   0.0000   0.2546
  20.400   0.9809   0.18751   0.18054  -0.0418  0.0051  0.1162  -3.6370   0.0000   0.2564
  20.600   0.9819   0.19085   0.18394  -0.0439  0.0051  0.1161  -3.6505   0.0000   0.2581
  20.800   0.9829   0.19420   0.18734  -0.0460  0.0051  0.1160  -3.6627   0.0000   0.2598
  21.000   0.9844   0.19746   0.19065  -0.0481  0.0051  0.1159  -3.6773   0.0000   0.2614
  21.200   0.9858   0.20077   0.19402  -0.0502  0.0051  0.1158  -3.6890   0.0000   0.2631
  21.400   0.9875   0.20401   0.19731  -0.0524  0.0051  0.1158  -3.7025   0.0000   0.2648
  21.600   0.9894   0.20724   0.20060  -0.0545  0.0051  0.1157  -3.7184   0.0000   0.2664
  21.800   0.9914   0.21048   0.20389  -0.0567  0.0051  0.1156  -3.7346   0.0000   0.2681
  22.000   0.9935   0.21365   0.20712  -0.0589  0.0051  0.1155  -3.7518   0.0000   0.2697
  22.200   0.9957   0.21688   0.21039  -0.0611  0.0051  0.1154  -3.7665   0.0000   0.2714
  22.400   0.9980   0.22005   0.21361  -0.0633  0.0052  0.1153  -3.7823   0.0000   0.2730
  22.600   1.0003   0.22325   0.21687  -0.0655  0.0069  0.1248  -3.7955   0.0000   0.2747
  22.800   1.0028   0.22642   0.22009  -0.0677  0.0069  0.1247  -3.8085   0.0000   0.2763
  23.000   1.0054   0.22954   0.22327  -0.0699  0.0069  0.1246  -3.8218   0.0000   0.2779
  23.200   1.0080   0.23268   0.22645  -0.0722  0.0069  0.1245  -3.8335   0.0000   0.2795
  23.400   1.0107   0.23581   0.22963  -0.0745  0.0069  0.1244  -3.8441   0.0000   0.2811
  23.600   1.0135   0.23892   0.23279  -0.0767  0.0069  0.1243  -3.8546   0.0000   0.2827
  23.800   1.0163   0.24206   0.23598  -0.0790  0.0069  0.1243  -3.8624   0.0000   0.2843
  24.000   1.0192   0.24518   0.23915  -0.0813  0.0069  0.1242  -3.8699   0.0000   0.2859
  24.200   1.0221   0.24829   0.24231  -0.0836  0.0069  0.1241  -3.8768   0.0000   0.2874
  24.400   1.0251   0.25143   0.24550  -0.0859  0.0069  0.1240  -3.8809   0.0000   0.2890
  24.600   1.0280   0.25461   0.24873  -0.0883  0.0089  0.1336  -3.8864   0.0000   0.2906
  24.800   1.0311   0.25775   0.25192  -0.0906  0.0089  0.1335  -3.8933   0.0000   0.2922
  25.000   1.0342   0.26089   0.25510  -0.0930  0.0089  0.1335  -3.8990   0.0000   0.2937


