xflr5 v6.47

 Calculated polar for: NACA 23015

 1 1 Reynolds number fixed          Mach number fixed         

 xtrf =   1.000 (top)        1.000 (bottom)
 Mach =   0.000     Re =     0.750 e 6     Ncrit =   0.100

  alpha     CL        CD       CDp       Cm    Top Xtr Bot Xtr   Cpmin    Chinge    XCp    
 ------- -------- --------- --------- -------- ------- ------- -------- --------- ---------
 -10.000  -0.9104   0.01961   0.01083  -0.0242  0.0507  0.0079  -6.0271   0.0000   0.2110
  -9.800  -0.8927   0.01928   0.01045  -0.0235  0.0508  0.0079  -5.8691   0.0000   0.2115
  -9.600  -0.8748   0.01895   0.01008  -0.0229  0.0508  0.0079  -5.7116   0.0000   0.2119
  -9.400  -0.8566   0.01864   0.00973  -0.0222  0.0509  0.0079  -5.5548   0.0000   0.2123
  -9.200  -0.8382   0.01834   0.00938  -0.0216  0.0450  0.0057  -5.3988   0.0000   0.2126
  -9.000  -0.8196   0.01805   0.00905  -0.0210  0.0450  0.0057  -5.2436   0.0000   0.2130
  -8.800  -0.8008   0.01777   0.00873  -0.0204  0.0451  0.0057  -5.0894   0.0000   0.2132
  -8.600  -0.7818   0.01750   0.00842  -0.0199  0.0451  0.0057  -4.9361   0.0000   0.2135
  -8.400  -0.7626   0.01724   0.00813  -0.0194  0.0452  0.0056  -4.7840   0.0000   0.2137
  -8.200  -0.7433   0.01699   0.00784  -0.0189  0.0396  0.0039  -4.6331   0.0000   0.2139
  -8.000  -0.7238   0.01675   0.00756  -0.0184  0.0397  0.0038  -4.4834   0.0000   0.2141
  -7.800  -0.7042   0.01652   0.00730  -0.0179  0.0397  0.0038  -4.3370   0.0000   0.2142
  -7.600  -0.6845   0.01629   0.00704  -0.0174  0.0398  0.0038  -4.1994   0.0000   0.2143
  -7.400  -0.6646   0.01608   0.00679  -0.0170  0.0398  0.0038  -4.0630   0.0000   0.2143
  -7.200  -0.6446   0.01587   0.00655  -0.0166  0.0346  0.0023  -3.9278   0.0000   0.2143
  -7.000  -0.6245   0.01567   0.00632  -0.0162  0.0346  0.0023  -3.7938   0.0000   0.2142
  -6.800  -0.6042   0.01548   0.00610  -0.0158  0.0347  0.0023  -3.6612   0.0000   0.2141
  -6.600  -0.5839   0.01530   0.00589  -0.0154  0.0348  0.0023  -3.5300   0.0000   0.2140
  -6.400  -0.5634   0.01513   0.00569  -0.0150  0.0348  0.0023  -3.4001   0.0000   0.2138
  -6.200  -0.5428   0.01496   0.00549  -0.0147  0.0299  0.0012  -3.2716   0.0000   0.2135
  -6.000  -0.5222   0.01480   0.00531  -0.0143  0.0299  0.0012  -3.1447   0.0000   0.2132
  -5.800  -0.5014   0.01465   0.00513  -0.0140  0.0300  0.0012  -3.0192   0.0000   0.2128
  -5.600  -0.4806   0.01450   0.00496  -0.0137  0.0301  0.0012  -2.8952   0.0000   0.2123
  -5.400  -0.4597   0.01436   0.00479  -0.0134  0.0255  0.0004  -2.7728   0.0000   0.2117
  -5.200  -0.4387   0.01423   0.00463  -0.0131  0.0255  0.0004  -2.6520   0.0000   0.2110
  -5.000  -0.4176   0.01410   0.00449  -0.0128  0.0256  0.0004  -2.5329   0.0000   0.2102
  -4.800  -0.3964   0.01398   0.00435  -0.0126  0.0256  0.0004  -2.4207   0.0000   0.2093
  -4.600  -0.3752   0.01387   0.00421  -0.0123  0.0257  0.0004  -2.3131   0.0000   0.2082
  -4.400  -0.3539   0.01376   0.00408  -0.0121  0.0215  0.0000  -2.2069   0.0000   0.2069
  -4.200  -0.3326   0.01366   0.00396  -0.0118  0.0215  0.0000  -2.1021   0.0000   0.2054
  -4.000  -0.3111   0.01357   0.00385  -0.0116  0.0216  0.0000  -1.9989   0.0000   0.2037
  -3.800  -0.2897   0.01348   0.00374  -0.0114  0.0216  0.0000  -1.8971   0.0000   0.2016
  -3.600  -0.2681   0.01340   0.00364  -0.0112  0.0217  0.0000  -1.7969   0.0000   0.1992
  -3.400  -0.2466   0.01332   0.00354  -0.0110  0.0178  0.0001  -1.6983   0.0000   0.1962
  -3.200  -0.2249   0.01325   0.00346  -0.0108  0.0178  0.0001  -1.6012   0.0000   0.1927
  -3.000  -0.2033   0.01318   0.00338  -0.0106  0.0179  0.0001  -1.5085   0.0000   0.1883
  -2.800  -0.1816   0.01312   0.00330  -0.0105  0.0179  0.0001  -1.4217   0.0000   0.1828
  -2.600  -0.1598   0.01307   0.00323  -0.0103  0.0144  0.0005  -1.3361   0.0000   0.1757
  -2.400  -0.1381   0.01302   0.00317  -0.0101  0.0144  0.0005  -1.2521   0.0000   0.1664
  -2.200  -0.1162   0.01298   0.00311  -0.0100  0.0145  0.0005  -1.1694   0.0000   0.1534
  -2.000  -0.0944   0.01294   0.00306  -0.0098  0.0145  0.0005  -1.0882   0.0000   0.1343
  -1.800  -0.0726   0.01290   0.00301  -0.0097  0.0146  0.0005  -1.0084   0.0000   0.1036
  -1.600  -0.0507   0.01287   0.00297  -0.0095  0.0114  0.0013  -0.9358   0.0000   0.0464
  -1.400  -0.0288   0.01285   0.00294  -0.0094  0.0114  0.0013  -0.8647   0.0000  -0.0983
  -1.200  -0.0069   0.01283   0.00291  -0.0093  0.0115  0.0013  -0.7949   0.0000  -1.1674
  -1.000   0.0151   0.01282   0.00289  -0.0091  0.0115  0.0013  -0.7264   0.0000   0.8779
  -0.800   0.0370   0.01281   0.00287  -0.0090  0.0116  0.0013  -0.6976   0.0000   0.4980
  -0.600   0.0589   0.01280   0.00285  -0.0089  0.0087  0.0026  -0.7249   0.0000   0.4009
  -0.400   0.0809   0.01280   0.00285  -0.0088  0.0087  0.0026  -0.7524   0.0000   0.3565
  -0.200   0.1028   0.01281   0.00285  -0.0087  0.0088  0.0026  -0.7801   0.0000   0.3310
   0.000   0.1248   0.01282   0.00285  -0.0086  0.0088  0.0026  -0.8085   0.0000   0.3146
   0.200   0.1467   0.01283   0.00286  -0.0084  0.0089  0.0027  -0.8378   0.0000   0.3030
   0.400   0.1686   0.01285   0.00287  -0.0083  0.0064  0.0045  -0.8673   0.0000   0.2944
   0.600   0.1906   0.01287   0.00289  -0.0082  0.0064  0.0045  -0.8970   0.0000   0.2878
   0.800   0.2125   0.01290   0.00292  -0.0081  0.0064  0.0045  -0.9268   0.0000   0.2826
   1.000   0.2344   0.01293   0.00295  -0.0080  0.0065  0.0045  -0.9572   0.0000   0.2783
   1.200   0.2563   0.01297   0.00298  -0.0079  0.0043  0.0068  -0.9888   0.0000   0.2748
   1.400   0.2781   0.01301   0.00302  -0.0078  0.0044  0.0068  -1.0205   0.0000   0.2717
   1.600   0.3000   0.01305   0.00306  -0.0077  0.0044  0.0068  -1.0524   0.0000   0.2692
   1.800   0.3218   0.01311   0.00311  -0.0075  0.0044  0.0068  -1.0845   0.0000   0.2669
   2.000   0.3436   0.01316   0.00317  -0.0074  0.0044  0.0068  -1.1171   0.0000   0.2649
   2.200   0.3653   0.01322   0.00323  -0.0073  0.0027  0.0097  -1.1509   0.0000   0.2631
   2.400   0.3871   0.01328   0.00330  -0.0072  0.0027  0.0097  -1.1850   0.0000   0.2615
   2.600   0.4088   0.01335   0.00337  -0.0071  0.0027  0.0097  -1.2193   0.0000   0.2601
   2.800   0.4304   0.01342   0.00344  -0.0070  0.0028  0.0096  -1.2536   0.0000   0.2588
   3.000   0.4520   0.01350   0.00352  -0.0068  0.0015  0.0131  -1.2886   0.0000   0.2576
   3.200   0.4736   0.01358   0.00361  -0.0067  0.0015  0.0130  -1.3249   0.0000   0.2564
   3.400   0.4951   0.01367   0.00370  -0.0066  0.0015  0.0130  -1.3615   0.0000   0.2554
   3.600   0.5166   0.01376   0.00380  -0.0064  0.0015  0.0129  -1.3981   0.0000   0.2544
   3.800   0.5380   0.01385   0.00390  -0.0063  0.0015  0.0128  -1.4348   0.0000   0.2535
   4.000   0.5593   0.01395   0.00401  -0.0061  0.0006  0.0168  -1.4726   0.0000   0.2526
   4.200   0.5806   0.01406   0.00412  -0.0060  0.0006  0.0167  -1.5115   0.0000   0.2517
   4.400   0.6018   0.01417   0.00424  -0.0058  0.0006  0.0166  -1.5505   0.0000   0.2509
   4.600   0.6230   0.01429   0.00437  -0.0056  0.0006  0.0165  -1.5895   0.0000   0.2501
   4.800   0.6441   0.01441   0.00449  -0.0054  0.0006  0.0164  -1.6287   0.0000   0.2494
   5.000   0.6650   0.01453   0.00464  -0.0052  0.0001  0.0208  -1.6698   0.0000   0.2486
   5.200   0.6860   0.01466   0.00478  -0.0051  0.0001  0.0207  -1.7113   0.0000   0.2479
   5.400   0.7068   0.01480   0.00493  -0.0048  0.0001  0.0206  -1.7527   0.0000   0.2472
   5.600   0.7275   0.01494   0.00508  -0.0046  0.0001  0.0205  -1.7943   0.0000   0.2465
   5.800   0.7482   0.01509   0.00525  -0.0044  0.0000  0.0252  -1.8371   0.0000   0.2459
   6.000   0.7687   0.01524   0.00542  -0.0042  0.0000  0.0251  -1.8811   0.0000   0.2452
   6.200   0.7891   0.01540   0.00559  -0.0039  0.0000  0.0250  -1.9251   0.0000   0.2445
   6.400   0.8094   0.01557   0.00577  -0.0036  0.0000  0.0248  -1.9691   0.0000   0.2438
   6.600   0.8296   0.01574   0.00597  -0.0034  0.0003  0.0300  -2.0143   0.0000   0.2432
   6.800   0.8496   0.01592   0.00616  -0.0031  0.0003  0.0298  -2.0608   0.0000   0.2425
   7.000   0.8696   0.01610   0.00636  -0.0028  0.0003  0.0297  -2.1072   0.0000   0.2419
   7.200   0.8893   0.01629   0.00657  -0.0024  0.0003  0.0296  -2.1538   0.0000   0.2412
   7.400   0.9089   0.01649   0.00679  -0.0021  0.0003  0.0294  -2.2020   0.0000   0.2405
   7.600   0.9284   0.01670   0.00703  -0.0017  0.0009  0.0349  -2.2511   0.0000   0.2398
   7.800   0.9476   0.01691   0.00726  -0.0013  0.0009  0.0347  -2.3000   0.0000   0.2391
   8.000   0.9667   0.01713   0.00750  -0.0009  0.0009  0.0346  -2.3497   0.0000   0.2384
   8.200   0.9855   0.01736   0.00776  -0.0005  0.0009  0.0345  -2.4013   0.0000   0.2377
   8.400   1.0042   0.01760   0.00803  -0.0000  0.0018  0.0403  -2.4528   0.0000   0.2370
   8.600   1.0226   0.01784   0.00830   0.0005  0.0018  0.0401  -2.5048   0.0000   0.2362
   8.800   1.0407   0.01810   0.00858   0.0010  0.0019  0.0400  -2.5588   0.0000   0.2355
   9.000   1.0585   0.01836   0.00887   0.0016  0.0019  0.0398  -2.6128   0.0000   0.2347
   9.200   1.0761   0.01863   0.00917   0.0022  0.0019  0.0397  -2.6681   0.0000   0.2339
   9.400   1.0933   0.01892   0.00949   0.0028  0.0031  0.0458  -2.7244   0.0000   0.2330
   9.600   1.1101   0.01921   0.00982   0.0035  0.0032  0.0456  -2.7815   0.0000   0.2322
   9.800   1.1265   0.01952   0.01016   0.0042  0.0032  0.0455  -2.8402   0.0000   0.2313
  10.000   1.1425   0.01984   0.01051   0.0050  0.0032  0.0453  -2.8998   0.0000   0.2303
  10.200   1.1573   0.02016   0.01086   0.0060  0.0032  0.0452  -2.9596   0.0000   0.2292
  10.400   1.1702   0.02048   0.01123   0.0074  0.0048  0.0517  -3.0189   0.0000   0.2278
  10.600   1.1827   0.02083   0.01161   0.0088  0.0048  0.0515  -3.0795   0.0000   0.2264
  10.800   1.1961   0.02123   0.01205   0.0099  0.0049  0.0514  -3.1444   0.0000   0.2253
  11.000   1.2095   0.02165   0.01251   0.0109  0.0049  0.0512  -3.2133   0.0000   0.2242
  11.200   1.2226   0.02211   0.01301   0.0119  0.0049  0.0511  -3.2841   0.0000   0.2231
  11.400   1.2354   0.02260   0.01354   0.0129  0.0068  0.0578  -3.3567   0.0000   0.2221
  11.600   1.2476   0.02312   0.01410   0.0139  0.0068  0.0577  -3.4323   0.0000   0.2210
  11.800   1.2594   0.02367   0.01471   0.0149  0.0068  0.0576  -3.5078   0.0000   0.2200
  12.000   1.2706   0.02427   0.01535   0.0159  0.0069  0.0574  -3.5846   0.0000   0.2189
  12.200   1.2814   0.02491   0.01604   0.0169  0.0069  0.0573  -3.6633   0.0000   0.2179
  12.400   1.2916   0.02560   0.01679   0.0179  0.0090  0.0644  -3.7410   0.0000   0.2169
  12.600   1.3013   0.02636   0.01759   0.0188  0.0091  0.0642  -3.8178   0.0000   0.2160
  12.800   1.3104   0.02717   0.01846   0.0196  0.0091  0.0641  -3.8980   0.0000   0.2150
  13.000   1.3190   0.02806   0.01940   0.0204  0.0091  0.0640  -3.9769   0.0000   0.2142
  13.200   1.3269   0.02904   0.02043   0.0211  0.0092  0.0639  -4.0541   0.0000   0.2133
  13.400   1.3342   0.03010   0.02155   0.0217  0.0092  0.0637  -4.1296   0.0000   0.2125
  13.600   1.3409   0.03126   0.02278   0.0223  0.0116  0.0711  -4.2041   0.0000   0.2118
  13.800   1.3468   0.03254   0.02412   0.0227  0.0116  0.0710  -4.2803   0.0000   0.2111
  14.000   1.3519   0.03394   0.02559   0.0230  0.0117  0.0708  -4.3540   0.0000   0.2105
  14.200   1.3563   0.03550   0.02721   0.0232  0.0117  0.0707  -4.4246   0.0000   0.2100
  14.400   1.3596   0.03720   0.02899   0.0232  0.0118  0.0707  -4.4917   0.0000   0.2096
  14.600   1.3621   0.03908   0.03094   0.0231  0.0118  0.0706  -4.5549   0.0000   0.2092
  14.800   1.3634   0.04116   0.03310   0.0229  0.0145  0.0782  -4.6137   0.0000   0.2089
  15.000   1.3635   0.04345   0.03547   0.0224  0.0145  0.0781  -4.6673   0.0000   0.2088
  15.200   1.3622   0.04598   0.03808   0.0219  0.0145  0.0780  -4.7149   0.0000   0.2087
  15.400   1.3595   0.04877   0.04095   0.0211  0.0145  0.0779  -4.7594   0.0000   0.2087
  15.600   1.3551   0.05185   0.04412   0.0201  0.0146  0.0779  -4.7967   0.0000   0.2089
  15.800   1.3488   0.05525   0.04761   0.0190  0.0146  0.0778  -4.8244   0.0000   0.2092
  16.000   1.3405   0.05899   0.05145   0.0177  0.0146  0.0778  -4.8427   0.0000   0.2095
  16.200   1.3303   0.06310   0.05566   0.0161  0.0146  0.0778  -4.8506   0.0000   0.2101
  16.400   1.3178   0.06759   0.06026   0.0144  0.0146  0.0778  -4.8465   0.0000   0.2107
  16.600   1.3032   0.07247   0.06524   0.0125  0.0146  0.0778  -4.8310   0.0000   0.2116
  16.800   1.2869   0.07770   0.07058   0.0105  0.0146  0.0778  -4.8048   0.0000   0.2125
  17.000   1.2689   0.08323   0.07621   0.0083  0.0146  0.0778  -4.7685   0.0000   0.2137
  17.200   1.2500   0.08896   0.08205   0.0060  0.0145  0.0778  -4.7252   0.0000   0.2149
  17.400   1.2311   0.09478   0.08798   0.0036  0.0145  0.0779  -4.6791   0.0000   0.2163
  17.600   1.2127   0.10056   0.09386   0.0012  0.0145  0.0779  -4.6324   0.0000   0.2178
  17.800   1.1950   0.10631   0.09970  -0.0012  0.0145  0.0779  -4.5864   0.0000   0.2193
  18.000   1.1791   0.11184   0.10532  -0.0036  0.0145  0.0780  -4.5466   0.0000   0.2209
  18.200   1.1649   0.11714   0.11071  -0.0059  0.0145  0.0780  -4.5131   0.0000   0.2225
  18.400   1.1521   0.12224   0.11588  -0.0082  0.0144  0.0780  -4.4842   0.0000   0.2241
  18.600   1.1408   0.12716   0.12088  -0.0105  0.0144  0.0780  -4.4609   0.0000   0.2257
  18.800   1.1311   0.13188   0.12566  -0.0127  0.0144  0.0780  -4.4436   0.0000   0.2274
  19.000   1.1232   0.13634   0.13018  -0.0149  0.0144  0.0780  -4.4338   0.0000   0.2289
  19.200   1.1161   0.14068   0.13458  -0.0170  0.0144  0.0780  -4.4271   0.0000   0.2305
  19.400   1.1096   0.14493   0.13889  -0.0192  0.0144  0.0780  -4.4217   0.0000   0.2321
  19.600   1.1049   0.14887   0.14289  -0.0213  0.0144  0.0780  -4.4252   0.0000   0.2336
  19.800   1.0999   0.15294   0.14702  -0.0234  0.0144  0.0779  -4.4247   0.0000   0.2353
  20.000   1.0968   0.15668   0.15081  -0.0255  0.0174  0.0859  -4.4343   0.0000   0.2368
  20.200   1.0932   0.16056   0.15474  -0.0277  0.0174  0.0858  -4.4388   0.0000   0.2384
  20.400   1.0912   0.16414   0.15837  -0.0297  0.0174  0.0858  -4.4554   0.0000   0.2399
  20.600   1.0887   0.16789   0.16217  -0.0319  0.0174  0.0858  -4.4667   0.0000   0.2415
  20.800   1.0875   0.17136   0.16568  -0.0340  0.0174  0.0857  -4.4867   0.0000   0.2430
  21.000   1.0859   0.17493   0.16930  -0.0362  0.0174  0.0857  -4.5018   0.0000   0.2446
  21.200   1.0851   0.17835   0.17277  -0.0383  0.0174  0.0856  -4.5214   0.0000   0.2461
  21.400   1.0847   0.18168   0.17615  -0.0404  0.0175  0.0856  -4.5430   0.0000   0.2476
  21.600   1.0840   0.18515   0.17966  -0.0426  0.0175  0.0856  -4.5599   0.0000   0.2492
  21.800   1.0843   0.18841   0.18297  -0.0448  0.0175  0.0855  -4.5835   0.0000   0.2507
  22.000   1.0844   0.19175   0.18634  -0.0470  0.0175  0.0855  -4.6038   0.0000   0.2523
  22.200   1.0847   0.19506   0.18970  -0.0492  0.0175  0.0854  -4.6243   0.0000   0.2538
  22.400   1.0858   0.19821   0.19289  -0.0513  0.0207  0.0936  -4.6503   0.0000   0.2553
  22.600   1.0861   0.20156   0.19628  -0.0536  0.0208  0.0935  -4.6678   0.0000   0.2569
  22.800   1.0872   0.20475   0.19951  -0.0559  0.0208  0.0935  -4.6908   0.0000   0.2584
  23.000   1.0887   0.20784   0.20265  -0.0581  0.0208  0.0934  -4.7162   0.0000   0.2599
  23.200   1.0893   0.21119   0.20604  -0.0604  0.0208  0.0934  -4.7317   0.0000   0.2616
  23.400   1.0909   0.21429   0.20918  -0.0627  0.0208  0.0933  -4.7553   0.0000   0.2631
  23.600   1.0925   0.21740   0.21232  -0.0650  0.0208  0.0933  -4.7778   0.0000   0.2646
  23.800   1.0935   0.22068   0.21565  -0.0674  0.0208  0.0933  -4.7926   0.0000   0.2662
  24.000   1.0953   0.22375   0.21876  -0.0697  0.0209  0.0932  -4.8165   0.0000   0.2677
  24.200   1.0970   0.22686   0.22191  -0.0720  0.0209  0.0931  -4.8406   0.0000   0.2692
  24.400   1.0983   0.23006   0.22516  -0.0745  0.0244  0.1015  -4.8593   0.0000   0.2709
  24.600   1.1003   0.23310   0.22823  -0.0768  0.0244  0.1015  -4.8842   0.0000   0.2724
  24.800   1.1020   0.23621   0.23138  -0.0792  0.0245  0.1014  -4.9047   0.0000   0.2739
  25.000   1.1036   0.23939   0.23460  -0.0817  0.0245  0.1014  -4.9214   0.0000   0.2755


