xflr5 v6.47

 Calculated polar for: NACA 23015

 1 1 Reynolds number fixed          Mach number fixed         

 xtrf =   1.000 (top)        1.000 (bottom)
 Mach =   0.000     Re =     0.400 e 6     Ncrit =   0.100

  alpha     CL        CD       CDp       Cm    Top Xtr Bot Xtr   Cpmin    Chinge    XCp    
 ------- -------- --------- --------- -------- ------- ------- -------- --------- ---------
 -10.000  -0.8807   0.02313   0.01347  -0.0280  0.0623  0.0045  -5.8361   0.0000   0.2057
  -9.800  -0.8643   0.02271   0.01298  -0.0272  0.0624  0.0045  -5.6878   0.0000   0.2062
  -9.600  -0.8475   0.02230   0.01251  -0.0264  0.0625  0.0045  -5.5395   0.0000   0.2067
  -9.400  -0.8305   0.02190   0.01205  -0.0257  0.0558  0.0029  -5.3914   0.0000   0.2072
  -9.200  -0.8132   0.02152   0.01161  -0.0250  0.0559  0.0029  -5.2436   0.0000   0.2076
  -9.000  -0.7956   0.02115   0.01119  -0.0243  0.0560  0.0029  -5.0963   0.0000   0.2080
  -8.800  -0.7778   0.02080   0.01079  -0.0236  0.0561  0.0028  -4.9495   0.0000   0.2083
  -8.600  -0.7598   0.02046   0.01040  -0.0229  0.0562  0.0028  -4.8034   0.0000   0.2086
  -8.400  -0.7415   0.02014   0.01001  -0.0223  0.0498  0.0016  -4.6580   0.0000   0.2089
  -8.200  -0.7231   0.01982   0.00965  -0.0217  0.0499  0.0016  -4.5134   0.0000   0.2092
  -8.000  -0.7045   0.01952   0.00931  -0.0211  0.0500  0.0016  -4.3699   0.0000   0.2094
  -7.800  -0.6857   0.01923   0.00897  -0.0205  0.0501  0.0016  -4.2353   0.0000   0.2095
  -7.600  -0.6668   0.01896   0.00865  -0.0200  0.0502  0.0016  -4.1030   0.0000   0.2096
  -7.400  -0.6478   0.01868   0.00833  -0.0194  0.0442  0.0007  -3.9717   0.0000   0.2097
  -7.200  -0.6285   0.01843   0.00803  -0.0189  0.0443  0.0007  -3.8415   0.0000   0.2098
  -7.000  -0.6091   0.01818   0.00774  -0.0184  0.0444  0.0007  -3.7123   0.0000   0.2098
  -6.800  -0.5896   0.01794   0.00747  -0.0179  0.0445  0.0007  -3.5842   0.0000   0.2097
  -6.600  -0.5700   0.01772   0.00720  -0.0174  0.0446  0.0007  -3.4573   0.0000   0.2096
  -6.400  -0.5503   0.01750   0.00694  -0.0170  0.0389  0.0002  -3.3311   0.0000   0.2094
  -6.200  -0.5304   0.01729   0.00669  -0.0165  0.0390  0.0002  -3.2066   0.0000   0.2092
  -6.000  -0.5104   0.01709   0.00646  -0.0161  0.0391  0.0001  -3.0833   0.0000   0.2089
  -5.800  -0.4903   0.01690   0.00624  -0.0157  0.0392  0.0001  -2.9614   0.0000   0.2086
  -5.600  -0.4701   0.01672   0.00602  -0.0153  0.0393  0.0001  -2.8409   0.0000   0.2081
  -5.400  -0.4498   0.01654   0.00581  -0.0149  0.0340  0.0000  -2.7228   0.0000   0.2076
  -5.200  -0.4294   0.01638   0.00562  -0.0145  0.0341  0.0000  -2.6060   0.0000   0.2069
  -5.000  -0.4089   0.01623   0.00543  -0.0142  0.0342  0.0000  -2.4908   0.0000   0.2062
  -4.800  -0.3883   0.01608   0.00526  -0.0138  0.0343  0.0000  -2.3828   0.0000   0.2052
  -4.600  -0.3677   0.01594   0.00509  -0.0135  0.0343  0.0000  -2.2776   0.0000   0.2042
  -4.400  -0.3470   0.01580   0.00491  -0.0132  0.0294  0.0003  -2.1730   0.0000   0.2030
  -4.200  -0.3262   0.01568   0.00477  -0.0129  0.0295  0.0003  -2.0712   0.0000   0.2015
  -4.000  -0.3052   0.01556   0.00463  -0.0126  0.0296  0.0003  -1.9711   0.0000   0.1998
  -3.800  -0.2843   0.01546   0.00449  -0.0123  0.0296  0.0003  -1.8724   0.0000   0.1977
  -3.600  -0.2632   0.01536   0.00437  -0.0120  0.0297  0.0003  -1.7750   0.0000   0.1952
  -3.400  -0.2422   0.01525   0.00424  -0.0117  0.0251  0.0009  -1.6821   0.0000   0.1924
  -3.200  -0.2210   0.01517   0.00413  -0.0114  0.0252  0.0010  -1.5874   0.0000   0.1888
  -3.000  -0.1998   0.01509   0.00403  -0.0112  0.0253  0.0010  -1.4942   0.0000   0.1844
  -2.800  -0.1785   0.01501   0.00394  -0.0110  0.0254  0.0010  -1.4069   0.0000   0.1789
  -2.600  -0.1573   0.01494   0.00384  -0.0107  0.0211  0.0021  -1.3270   0.0000   0.1719
  -2.400  -0.1359   0.01488   0.00376  -0.0105  0.0212  0.0021  -1.2449   0.0000   0.1624
  -2.200  -0.1145   0.01483   0.00369  -0.0103  0.0212  0.0021  -1.1641   0.0000   0.1494
  -2.000  -0.0931   0.01478   0.00363  -0.0101  0.0213  0.0022  -1.0846   0.0000   0.1302
  -1.800  -0.0717   0.01474   0.00357  -0.0098  0.0214  0.0022  -1.0064   0.0000   0.0994
  -1.600  -0.0502   0.01470   0.00351  -0.0096  0.0174  0.0038  -0.9335   0.0000   0.0426
  -1.400  -0.0287   0.01467   0.00347  -0.0094  0.0175  0.0038  -0.8639   0.0000  -0.1006
  -1.200  -0.0072   0.01465   0.00343  -0.0093  0.0176  0.0039  -0.7954   0.0000  -1.1025
  -1.000   0.0144   0.01463   0.00340  -0.0091  0.0177  0.0039  -0.7281   0.0000   0.9033
  -0.800   0.0359   0.01462   0.00337  -0.0089  0.0178  0.0039  -0.6978   0.0000   0.5017
  -0.600   0.0574   0.01461   0.00335  -0.0087  0.0141  0.0061  -0.7249   0.0000   0.4013
  -0.400   0.0790   0.01461   0.00334  -0.0085  0.0142  0.0062  -0.7522   0.0000   0.3557
  -0.200   0.1006   0.01462   0.00334  -0.0083  0.0143  0.0062  -0.7796   0.0000   0.3297
   0.000   0.1222   0.01463   0.00334  -0.0082  0.0143  0.0062  -0.8073   0.0000   0.3129
   0.200   0.1438   0.01465   0.00335  -0.0080  0.0144  0.0062  -0.8364   0.0000   0.3012
   0.400   0.1653   0.01467   0.00336  -0.0078  0.0111  0.0091  -0.8656   0.0000   0.2924
   0.600   0.1869   0.01469   0.00338  -0.0077  0.0112  0.0091  -0.8950   0.0000   0.2857
   0.800   0.2084   0.01473   0.00340  -0.0075  0.0113  0.0091  -0.9246   0.0000   0.2804
   1.000   0.2300   0.01477   0.00344  -0.0073  0.0113  0.0091  -0.9543   0.0000   0.2760
   1.200   0.2514   0.01481   0.00347  -0.0072  0.0084  0.0127  -0.9855   0.0000   0.2724
   1.400   0.2729   0.01486   0.00352  -0.0070  0.0084  0.0127  -1.0169   0.0000   0.2693
   1.600   0.2944   0.01491   0.00357  -0.0068  0.0085  0.0126  -1.0485   0.0000   0.2667
   1.800   0.3159   0.01497   0.00363  -0.0067  0.0085  0.0126  -1.0803   0.0000   0.2644
   2.000   0.3373   0.01503   0.00369  -0.0065  0.0086  0.0125  -1.1123   0.0000   0.2624
   2.200   0.3586   0.01510   0.00376  -0.0063  0.0061  0.0168  -1.1455   0.0000   0.2606
   2.400   0.3800   0.01518   0.00384  -0.0061  0.0061  0.0167  -1.1793   0.0000   0.2590
   2.600   0.4013   0.01526   0.00392  -0.0059  0.0061  0.0167  -1.2132   0.0000   0.2575
   2.800   0.4225   0.01534   0.00401  -0.0058  0.0062  0.0166  -1.2473   0.0000   0.2562
   3.000   0.4437   0.01543   0.00410  -0.0056  0.0062  0.0165  -1.2816   0.0000   0.2549
   3.200   0.4649   0.01553   0.00420  -0.0054  0.0041  0.0213  -1.3170   0.0000   0.2538
   3.400   0.4860   0.01563   0.00431  -0.0052  0.0041  0.0211  -1.3531   0.0000   0.2527
   3.600   0.5070   0.01574   0.00442  -0.0050  0.0042  0.0210  -1.3894   0.0000   0.2517
   3.800   0.5280   0.01585   0.00454  -0.0048  0.0042  0.0209  -1.4259   0.0000   0.2507
   4.000   0.5488   0.01597   0.00468  -0.0045  0.0025  0.0262  -1.4625   0.0000   0.2498
   4.200   0.5697   0.01609   0.00481  -0.0043  0.0025  0.0260  -1.5005   0.0000   0.2490
   4.400   0.5904   0.01622   0.00495  -0.0041  0.0026  0.0258  -1.5391   0.0000   0.2481
   4.600   0.6111   0.01635   0.00509  -0.0038  0.0026  0.0257  -1.5779   0.0000   0.2473
   4.800   0.6317   0.01649   0.00524  -0.0036  0.0026  0.0255  -1.6168   0.0000   0.2465
   5.000   0.6521   0.01664   0.00541  -0.0033  0.0013  0.0312  -1.6558   0.0000   0.2458
   5.200   0.6725   0.01679   0.00558  -0.0031  0.0013  0.0310  -1.6967   0.0000   0.2450
   5.400   0.6928   0.01695   0.00575  -0.0028  0.0013  0.0308  -1.7378   0.0000   0.2443
   5.600   0.7130   0.01711   0.00594  -0.0025  0.0013  0.0305  -1.7790   0.0000   0.2436
   5.800   0.7330   0.01729   0.00614  -0.0022  0.0005  0.0367  -1.8202   0.0000   0.2429
   6.000   0.7530   0.01747   0.00634  -0.0018  0.0005  0.0364  -1.8626   0.0000   0.2421
   6.200   0.7728   0.01765   0.00654  -0.0015  0.0005  0.0362  -1.9061   0.0000   0.2414
   6.400   0.7925   0.01784   0.00675  -0.0012  0.0005  0.0359  -1.9496   0.0000   0.2407
   6.600   0.8120   0.01804   0.00698  -0.0008  0.0005  0.0357  -1.9932   0.0000   0.2400
   6.800   0.8313   0.01825   0.00722  -0.0004  0.0001  0.0421  -2.0375   0.0000   0.2393
   7.000   0.8504   0.01847   0.00746   0.0000  0.0001  0.0419  -2.0832   0.0000   0.2386
   7.200   0.8694   0.01869   0.00771   0.0004  0.0001  0.0416  -2.1290   0.0000   0.2379
   7.400   0.8882   0.01892   0.00797   0.0009  0.0001  0.0413  -2.1748   0.0000   0.2372
   7.600   0.9068   0.01917   0.00825   0.0014  0.0000  0.0481  -2.2217   0.0000   0.2364
   7.800   0.9251   0.01942   0.00853   0.0019  0.0000  0.0478  -2.2696   0.0000   0.2356
   8.000   0.9432   0.01967   0.00882   0.0024  0.0000  0.0476  -2.3174   0.0000   0.2349
   8.200   0.9610   0.01994   0.00912   0.0030  0.0000  0.0473  -2.3656   0.0000   0.2341
   8.400   0.9786   0.02022   0.00944   0.0035  0.0000  0.0470  -2.4155   0.0000   0.2333
   8.600   0.9958   0.02052   0.00978   0.0042  0.0003  0.0541  -2.4650   0.0000   0.2324
   8.800   1.0126   0.02082   0.01012   0.0049  0.0004  0.0538  -2.5152   0.0000   0.2316
   9.000   1.0291   0.02113   0.01047   0.0056  0.0004  0.0535  -2.5667   0.0000   0.2307
   9.200   1.0452   0.02146   0.01083   0.0064  0.0004  0.0533  -2.6179   0.0000   0.2297
   9.400   1.0607   0.02180   0.01121   0.0072  0.0004  0.0530  -2.6705   0.0000   0.2288
   9.600   1.0747   0.02214   0.01161   0.0083  0.0010  0.0604  -2.7215   0.0000   0.2275
   9.800   1.0876   0.02249   0.01201   0.0096  0.0011  0.0601  -2.7719   0.0000   0.2261
  10.000   1.1003   0.02288   0.01243   0.0109  0.0011  0.0599  -2.8241   0.0000   0.2248
  10.200   1.1135   0.02330   0.01291   0.0119  0.0011  0.0596  -2.8779   0.0000   0.2236
  10.400   1.1267   0.02377   0.01342   0.0129  0.0011  0.0594  -2.9342   0.0000   0.2225
  10.600   1.1395   0.02427   0.01397   0.0139  0.0021  0.0670  -2.9917   0.0000   0.2215
  10.800   1.1520   0.02479   0.01455   0.0149  0.0021  0.0667  -3.0504   0.0000   0.2204
  11.000   1.1639   0.02535   0.01517   0.0159  0.0021  0.0665  -3.1115   0.0000   0.2194
  11.200   1.1754   0.02596   0.01583   0.0168  0.0021  0.0663  -3.1740   0.0000   0.2184
  11.400   1.1863   0.02661   0.01653   0.0178  0.0022  0.0661  -3.2371   0.0000   0.2174
  11.600   1.1967   0.02731   0.01730   0.0187  0.0034  0.0739  -3.3029   0.0000   0.2164
  11.800   1.2065   0.02807   0.01812   0.0196  0.0035  0.0737  -3.3681   0.0000   0.2154
  12.000   1.2158   0.02889   0.01901   0.0204  0.0035  0.0735  -3.4358   0.0000   0.2145
  12.200   1.2245   0.02979   0.01996   0.0212  0.0035  0.0733  -3.5022   0.0000   0.2136
  12.400   1.2326   0.03076   0.02101   0.0219  0.0035  0.0731  -3.5694   0.0000   0.2128
  12.600   1.2401   0.03182   0.02214   0.0225  0.0036  0.0729  -3.6369   0.0000   0.2120
  12.800   1.2468   0.03300   0.02339   0.0230  0.0051  0.0810  -3.7024   0.0000   0.2113
  13.000   1.2529   0.03428   0.02474   0.0234  0.0051  0.0808  -3.7658   0.0000   0.2107
  13.200   1.2582   0.03569   0.02623   0.0237  0.0052  0.0806  -3.8305   0.0000   0.2101
  13.400   1.2627   0.03724   0.02786   0.0238  0.0052  0.0804  -3.8933   0.0000   0.2096
  13.600   1.2663   0.03894   0.02964   0.0238  0.0052  0.0803  -3.9527   0.0000   0.2092
  13.800   1.2690   0.04082   0.03160   0.0237  0.0052  0.0801  -4.0089   0.0000   0.2089
  14.000   1.2706   0.04288   0.03375   0.0234  0.0053  0.0800  -4.0611   0.0000   0.2087
  14.200   1.2710   0.04517   0.03613   0.0229  0.0071  0.0883  -4.1083   0.0000   0.2086
  14.400   1.2702   0.04767   0.03873   0.0223  0.0071  0.0882  -4.1539   0.0000   0.2087
  14.600   1.2680   0.05043   0.04158   0.0215  0.0071  0.0881  -4.1939   0.0000   0.2088
  14.800   1.2643   0.05346   0.04471   0.0205  0.0071  0.0880  -4.2272   0.0000   0.2090
  15.000   1.2589   0.05678   0.04814   0.0193  0.0071  0.0879  -4.2526   0.0000   0.2094
  15.200   1.2519   0.06041   0.05187   0.0180  0.0072  0.0879  -4.2701   0.0000   0.2099
  15.400   1.2431   0.06436   0.05593   0.0165  0.0072  0.0878  -4.2794   0.0000   0.2105
  15.600   1.2326   0.06861   0.06029   0.0149  0.0072  0.0878  -4.2798   0.0000   0.2112
  15.800   1.2206   0.07317   0.06496   0.0130  0.0072  0.0878  -4.2721   0.0000   0.2121
  16.000   1.2074   0.07799   0.06989   0.0111  0.0072  0.0877  -4.2571   0.0000   0.2131
  16.200   1.1932   0.08301   0.07502   0.0091  0.0072  0.0878  -4.2356   0.0000   0.2143
  16.400   1.1785   0.08816   0.08028   0.0070  0.0071  0.0878  -4.2100   0.0000   0.2155
  16.600   1.1638   0.09338   0.08561   0.0048  0.0071  0.0878  -4.1821   0.0000   0.2168
  16.800   1.1495   0.09860   0.09092   0.0027  0.0071  0.0878  -4.1535   0.0000   0.2182
  17.000   1.1359   0.10374   0.09616   0.0005  0.0071  0.0878  -4.1260   0.0000   0.2196
  17.200   1.1234   0.10876   0.10127  -0.0016  0.0071  0.0878  -4.1018   0.0000   0.2211
  17.400   1.1120   0.11366   0.10625  -0.0038  0.0071  0.0879  -4.0805   0.0000   0.2226
  17.600   1.1017   0.11841   0.11109  -0.0059  0.0071  0.0879  -4.0623   0.0000   0.2242
  17.800   1.0924   0.12303   0.11578  -0.0080  0.0071  0.0879  -4.0490   0.0000   0.2257
  18.000   1.0841   0.12752   0.12035  -0.0101  0.0071  0.0878  -4.0397   0.0000   0.2273
  18.200   1.0770   0.13187   0.12477  -0.0121  0.0071  0.0878  -4.0343   0.0000   0.2288
  18.400   1.0711   0.13603   0.12900  -0.0141  0.0071  0.0878  -4.0339   0.0000   0.2304
  18.600   1.0654   0.14020   0.13324  -0.0162  0.0091  0.0964  -4.0327   0.0000   0.2320
  18.800   1.0607   0.14418   0.13729  -0.0182  0.0091  0.0964  -4.0359   0.0000   0.2335
  19.000   1.0568   0.14807   0.14124  -0.0202  0.0091  0.0963  -4.0415   0.0000   0.2351
  19.200   1.0533   0.15193   0.14516  -0.0223  0.0091  0.0963  -4.0476   0.0000   0.2367
  19.400   1.0506   0.15566   0.14895  -0.0243  0.0091  0.0962  -4.0570   0.0000   0.2382
  19.600   1.0481   0.15939   0.15273  -0.0264  0.0091  0.0962  -4.0663   0.0000   0.2398
  19.800   1.0464   0.16300   0.15640  -0.0284  0.0091  0.0961  -4.0786   0.0000   0.2414
  20.000   1.0448   0.16660   0.16006  -0.0305  0.0092  0.0961  -4.0903   0.0000   0.2430
  20.200   1.0437   0.17015   0.16366  -0.0326  0.0092  0.0960  -4.1031   0.0000   0.2446
  20.400   1.0429   0.17361   0.16718  -0.0346  0.0092  0.0960  -4.1175   0.0000   0.2462
  20.600   1.0420   0.17714   0.17076  -0.0368  0.0092  0.0959  -4.1289   0.0000   0.2478
  20.800   1.0419   0.18051   0.17418  -0.0388  0.0092  0.0958  -4.1446   0.0000   0.2494
  21.000   1.0414   0.18401   0.17774  -0.0410  0.0092  0.0958  -4.1582   0.0000   0.2511
  21.200   1.0416   0.18737   0.18116  -0.0432  0.0115  0.1045  -4.1774   0.0000   0.2527
  21.400   1.0418   0.19078   0.18461  -0.0454  0.0115  0.1045  -4.1944   0.0000   0.2544
  21.600   1.0423   0.19415   0.18804  -0.0476  0.0115  0.1044  -4.2122   0.0000   0.2560
  21.800   1.0430   0.19745   0.19139  -0.0498  0.0115  0.1043  -4.2312   0.0000   0.2577
  22.000   1.0435   0.20087   0.19486  -0.0521  0.0115  0.1043  -4.2454   0.0000   0.2594
  22.200   1.0444   0.20420   0.19823  -0.0543  0.0115  0.1042  -4.2620   0.0000   0.2611
  22.400   1.0453   0.20757   0.20165  -0.0566  0.0116  0.1042  -4.2762   0.0000   0.2628
  22.600   1.0462   0.21093   0.20506  -0.0590  0.0116  0.1041  -4.2896   0.0000   0.2645
  22.800   1.0476   0.21421   0.20840  -0.0613  0.0116  0.1040  -4.3050   0.0000   0.2662
  23.000   1.0485   0.21763   0.21187  -0.0637  0.0116  0.1040  -4.3140   0.0000   0.2680
  23.200   1.0499   0.22095   0.21523  -0.0660  0.0116  0.1039  -4.3261   0.0000   0.2697
  23.400   1.0509   0.22435   0.21869  -0.0685  0.0141  0.1129  -4.3330   0.0000   0.2715
  23.600   1.0523   0.22770   0.22209  -0.0709  0.0142  0.1128  -4.3404   0.0000   0.2733
  23.800   1.0538   0.23101   0.22545  -0.0733  0.0142  0.1128  -4.3479   0.0000   0.2750
  24.000   1.0549   0.23444   0.22892  -0.0758  0.0142  0.1127  -4.3492   0.0000   0.2769
  24.200   1.0566   0.23775   0.23228  -0.0783  0.0142  0.1127  -4.3542   0.0000   0.2786
  24.400   1.0578   0.24123   0.23581  -0.0808  0.0142  0.1126  -4.3530   0.0000   0.2805
  24.600   1.0595   0.24460   0.23923  -0.0833  0.0142  0.1126  -4.3583   0.0000   0.2823
  24.800   1.0610   0.24805   0.24273  -0.0859  0.0142  0.1126  -4.3584   0.0000   0.2841
  25.000   1.0628   0.25143   0.24615  -0.0884  0.0142  0.1125  -4.3600   0.0000   0.2859


