xflr5 v6.47

 Calculated polar for: NACA 23015

 1 1 Reynolds number fixed          Mach number fixed         

 xtrf =   1.000 (top)        1.000 (bottom)
 Mach =   0.000     Re =     3.500 e 6     Ncrit =   0.100

  alpha     CL        CD       CDp       Cm    Top Xtr Bot Xtr   Cpmin    Chinge    XCp    
 ------- -------- --------- --------- -------- ------- ------- -------- --------- ---------
 -10.000  -0.9613   0.01422   0.00721  -0.0170  0.0362  0.0149  -6.3035   0.0000   0.2201
  -9.800  -0.9415   0.01399   0.00696  -0.0166  0.0363  0.0149  -6.1317   0.0000   0.2204
  -9.600  -0.9215   0.01378   0.00672  -0.0162  0.0363  0.0149  -5.9610   0.0000   0.2207
  -9.400  -0.9014   0.01357   0.00649  -0.0157  0.0363  0.0149  -5.7917   0.0000   0.2210
  -9.200  -0.8811   0.01337   0.00627  -0.0153  0.0364  0.0149  -5.6238   0.0000   0.2212
  -9.000  -0.8608   0.01317   0.00605  -0.0150  0.0314  0.0118  -5.4578   0.0000   0.2214
  -8.800  -0.8403   0.01298   0.00584  -0.0146  0.0314  0.0118  -5.2933   0.0000   0.2216
  -8.600  -0.8196   0.01280   0.00564  -0.0143  0.0315  0.0118  -5.1303   0.0000   0.2217
  -8.400  -0.7989   0.01263   0.00545  -0.0139  0.0315  0.0118  -4.9689   0.0000   0.2219
  -8.200  -0.7781   0.01246   0.00526  -0.0136  0.0315  0.0118  -4.8090   0.0000   0.2220
  -8.000  -0.7571   0.01230   0.00508  -0.0133  0.0269  0.0091  -4.6506   0.0000   0.2220
  -7.800  -0.7361   0.01214   0.00490  -0.0130  0.0269  0.0091  -4.4938   0.0000   0.2221
  -7.600  -0.7149   0.01199   0.00474  -0.0128  0.0270  0.0090  -4.3387   0.0000   0.2221
  -7.400  -0.6937   0.01184   0.00457  -0.0125  0.0270  0.0090  -4.1912   0.0000   0.2220
  -7.200  -0.6724   0.01170   0.00442  -0.0123  0.0227  0.0067  -4.0495   0.0000   0.2219
  -7.000  -0.6510   0.01157   0.00427  -0.0120  0.0228  0.0067  -3.9093   0.0000   0.2218
  -6.800  -0.6295   0.01144   0.00412  -0.0118  0.0228  0.0067  -3.7707   0.0000   0.2217
  -6.600  -0.6080   0.01132   0.00398  -0.0116  0.0228  0.0066  -3.6338   0.0000   0.2215
  -6.400  -0.5863   0.01120   0.00385  -0.0114  0.0228  0.0066  -3.4983   0.0000   0.2212
  -6.200  -0.5646   0.01108   0.00372  -0.0112  0.0189  0.0047  -3.3645   0.0000   0.2209
  -6.000  -0.5428   0.01098   0.00360  -0.0111  0.0189  0.0046  -3.2324   0.0000   0.2205
  -5.800  -0.5210   0.01087   0.00349  -0.0109  0.0190  0.0046  -3.1019   0.0000   0.2200
  -5.600  -0.4991   0.01077   0.00338  -0.0107  0.0190  0.0046  -2.9731   0.0000   0.2195
  -5.400  -0.4771   0.01068   0.00327  -0.0106  0.0190  0.0046  -2.8459   0.0000   0.2189
  -5.200  -0.4551   0.01059   0.00317  -0.0105  0.0154  0.0030  -2.7205   0.0000   0.2182
  -5.000  -0.4331   0.01051   0.00307  -0.0103  0.0155  0.0030  -2.5970   0.0000   0.2173
  -4.800  -0.4110   0.01043   0.00298  -0.0102  0.0155  0.0030  -2.4752   0.0000   0.2164
  -4.600  -0.3888   0.01035   0.00289  -0.0101  0.0155  0.0029  -2.3615   0.0000   0.2153
  -4.400  -0.3666   0.01028   0.00281  -0.0100  0.0123  0.0017  -2.2522   0.0000   0.2140
  -4.200  -0.3443   0.01021   0.00273  -0.0099  0.0123  0.0017  -2.1443   0.0000   0.2125
  -4.000  -0.3220   0.01015   0.00266  -0.0098  0.0123  0.0017  -2.0380   0.0000   0.2108
  -3.800  -0.2997   0.01009   0.00259  -0.0097  0.0123  0.0016  -1.9333   0.0000   0.2087
  -3.600  -0.2773   0.01003   0.00253  -0.0097  0.0124  0.0016  -1.8302   0.0000   0.2063
  -3.400  -0.2549   0.00998   0.00247  -0.0096  0.0095  0.0007  -1.7288   0.0000   0.2034
  -3.200  -0.2325   0.00994   0.00241  -0.0095  0.0095  0.0007  -1.6291   0.0000   0.1999
  -3.000  -0.2100   0.00989   0.00236  -0.0095  0.0095  0.0007  -1.5311   0.0000   0.1957
  -2.800  -0.1875   0.00985   0.00231  -0.0094  0.0095  0.0007  -1.4405   0.0000   0.1903
  -2.600  -0.1650   0.00982   0.00227  -0.0094  0.0096  0.0007  -1.3532   0.0000   0.1834
  -2.400  -0.1425   0.00979   0.00223  -0.0094  0.0071  0.0002  -1.2673   0.0000   0.1743
  -2.200  -0.1199   0.00976   0.00220  -0.0093  0.0071  0.0002  -1.1828   0.0000   0.1617
  -2.000  -0.0973   0.00973   0.00217  -0.0093  0.0071  0.0002  -1.0999   0.0000   0.1432
  -1.800  -0.0747   0.00971   0.00214  -0.0093  0.0071  0.0002  -1.0184   0.0000   0.1134
  -1.600  -0.0521   0.00969   0.00212  -0.0093  0.0050  0.0000  -0.9417   0.0000   0.0576
  -1.400  -0.0295   0.00968   0.00210  -0.0092  0.0050  0.0000  -0.8694   0.0000  -0.0838
  -1.200  -0.0069   0.00967   0.00208  -0.0092  0.0050  0.0000  -0.7984   0.0000  -1.1519
  -1.000   0.0157   0.00966   0.00207  -0.0092  0.0050  0.0000  -0.7287   0.0000   0.8551
  -0.800   0.0384   0.00966   0.00206  -0.0092  0.0050  0.0000  -0.6992   0.0000   0.4936
  -0.600   0.0610   0.00966   0.00206  -0.0092  0.0032  0.0002  -0.7273   0.0000   0.4005
  -0.400   0.0836   0.00966   0.00205  -0.0092  0.0032  0.0002  -0.7555   0.0000   0.3578
  -0.200   0.1063   0.00967   0.00206  -0.0092  0.0032  0.0002  -0.7839   0.0000   0.3332
   0.000   0.1289   0.00967   0.00206  -0.0092  0.0033  0.0002  -0.8126   0.0000   0.3173
   0.200   0.1515   0.00969   0.00207  -0.0092  0.0018  0.0008  -0.8427   0.0000   0.3062
   0.400   0.1742   0.00970   0.00209  -0.0092  0.0019  0.0008  -0.8730   0.0000   0.2979
   0.600   0.1968   0.00972   0.00210  -0.0092  0.0019  0.0008  -0.9035   0.0000   0.2915
   0.800   0.2194   0.00974   0.00212  -0.0092  0.0019  0.0008  -0.9341   0.0000   0.2865
   1.000   0.2420   0.00977   0.00215  -0.0092  0.0019  0.0009  -0.9650   0.0000   0.2823
   1.200   0.2646   0.00980   0.00217  -0.0092  0.0009  0.0019  -0.9974   0.0000   0.2789
   1.400   0.2871   0.00983   0.00220  -0.0092  0.0009  0.0019  -1.0300   0.0000   0.2760
   1.600   0.3097   0.00987   0.00224  -0.0092  0.0009  0.0019  -1.0629   0.0000   0.2735
   1.800   0.3322   0.00990   0.00228  -0.0092  0.0009  0.0019  -1.0959   0.0000   0.2713
   2.000   0.3547   0.00995   0.00232  -0.0092  0.0009  0.0019  -1.1291   0.0000   0.2693
   2.200   0.3772   0.00999   0.00236  -0.0092  0.0002  0.0034  -1.1640   0.0000   0.2676
   2.400   0.3996   0.01004   0.00241  -0.0092  0.0002  0.0034  -1.1991   0.0000   0.2661
   2.600   0.4221   0.01009   0.00246  -0.0092  0.0002  0.0034  -1.2344   0.0000   0.2647
   2.800   0.4445   0.01014   0.00252  -0.0092  0.0002  0.0034  -1.2699   0.0000   0.2634
   3.000   0.4668   0.01020   0.00258  -0.0092  0.0000  0.0053  -1.3057   0.0000   0.2623
   3.200   0.4892   0.01026   0.00264  -0.0092  0.0000  0.0053  -1.3431   0.0000   0.2612
   3.400   0.5115   0.01033   0.00271  -0.0092  0.0000  0.0053  -1.3809   0.0000   0.2602
   3.600   0.5337   0.01040   0.00278  -0.0091  0.0000  0.0053  -1.4188   0.0000   0.2592
   3.800   0.5559   0.01047   0.00285  -0.0091  0.0000  0.0052  -1.4570   0.0000   0.2583
   4.000   0.5781   0.01054   0.00293  -0.0091  0.0001  0.0076  -1.4956   0.0000   0.2575
   4.200   0.6002   0.01062   0.00301  -0.0091  0.0001  0.0076  -1.5358   0.0000   0.2567
   4.400   0.6223   0.01070   0.00309  -0.0090  0.0001  0.0075  -1.5764   0.0000   0.2559
   4.600   0.6443   0.01079   0.00318  -0.0090  0.0001  0.0075  -1.6171   0.0000   0.2552
   4.800   0.6663   0.01088   0.00328  -0.0090  0.0006  0.0102  -1.6580   0.0000   0.2545
   5.000   0.6882   0.01097   0.00337  -0.0089  0.0006  0.0102  -1.7000   0.0000   0.2538
   5.200   0.7101   0.01106   0.00347  -0.0088  0.0006  0.0102  -1.7432   0.0000   0.2531
   5.400   0.7319   0.01117   0.00358  -0.0088  0.0006  0.0102  -1.7867   0.0000   0.2525
   5.600   0.7536   0.01127   0.00369  -0.0087  0.0015  0.0133  -1.8303   0.0000   0.2519
   5.800   0.7753   0.01138   0.00380  -0.0086  0.0015  0.0133  -1.8744   0.0000   0.2512
   6.000   0.7969   0.01149   0.00392  -0.0085  0.0015  0.0132  -1.9204   0.0000   0.2506
   6.200   0.8184   0.01161   0.00404  -0.0085  0.0015  0.0132  -1.9666   0.0000   0.2500
   6.400   0.8398   0.01173   0.00417  -0.0083  0.0015  0.0132  -2.0130   0.0000   0.2494
   6.600   0.8612   0.01185   0.00430  -0.0082  0.0027  0.0167  -2.0599   0.0000   0.2488
   6.800   0.8825   0.01198   0.00444  -0.0081  0.0027  0.0166  -2.1089   0.0000   0.2482
   7.000   0.9036   0.01211   0.00458  -0.0080  0.0027  0.0166  -2.1581   0.0000   0.2476
   7.200   0.9247   0.01225   0.00473  -0.0078  0.0027  0.0166  -2.2075   0.0000   0.2470
   7.400   0.9457   0.01240   0.00488  -0.0077  0.0042  0.0204  -2.2581   0.0000   0.2465
   7.600   0.9666   0.01254   0.00504  -0.0075  0.0042  0.0204  -2.3102   0.0000   0.2459
   7.800   0.9873   0.01270   0.00520  -0.0073  0.0042  0.0204  -2.3624   0.0000   0.2453
   8.000   1.0080   0.01285   0.00537  -0.0071  0.0042  0.0203  -2.4154   0.0000   0.2447
   8.200   1.0285   0.01302   0.00555  -0.0069  0.0061  0.0245  -2.4705   0.0000   0.2441
   8.400   1.0489   0.01319   0.00573  -0.0067  0.0061  0.0245  -2.5257   0.0000   0.2435
   8.600   1.0692   0.01336   0.00591  -0.0065  0.0061  0.0245  -2.5822   0.0000   0.2429
   8.800   1.0893   0.01354   0.00610  -0.0062  0.0061  0.0244  -2.6405   0.0000   0.2422
   9.000   1.1092   0.01372   0.00630  -0.0059  0.0062  0.0243  -2.6989   0.0000   0.2416
   9.200   1.1290   0.01392   0.00651  -0.0056  0.0083  0.0289  -2.7603   0.0000   0.2410
   9.400   1.1486   0.01411   0.00672  -0.0053  0.0083  0.0289  -2.8218   0.0000   0.2403
   9.600   1.1681   0.01432   0.00694  -0.0049  0.0084  0.0288  -2.8865   0.0000   0.2397
   9.800   1.1873   0.01453   0.00716  -0.0046  0.0084  0.0288  -2.9525   0.0000   0.2390
  10.000   1.2063   0.01475   0.00740  -0.0042  0.0109  0.0337  -3.0208   0.0000   0.2383
  10.200   1.2251   0.01497   0.00764  -0.0037  0.0109  0.0337  -3.0925   0.0000   0.2376
  10.400   1.2437   0.01520   0.00789  -0.0033  0.0109  0.0336  -3.1674   0.0000   0.2369
  10.600   1.2619   0.01545   0.00815  -0.0028  0.0110  0.0336  -3.2457   0.0000   0.2362
  10.800   1.2799   0.01570   0.00842  -0.0022  0.0138  0.0388  -3.3275   0.0000   0.2354
  11.000   1.2976   0.01595   0.00869  -0.0017  0.0138  0.0388  -3.4126   0.0000   0.2346
  11.200   1.3149   0.01622   0.00898  -0.0010  0.0138  0.0387  -3.5016   0.0000   0.2338
  11.400   1.3318   0.01649   0.00927  -0.0004  0.0139  0.0387  -3.5916   0.0000   0.2330
  11.600   1.3483   0.01678   0.00958   0.0004  0.0139  0.0386  -3.6858   0.0000   0.2321
  11.800   1.3643   0.01708   0.00990   0.0012  0.0170  0.0442  -3.7807   0.0000   0.2312
  12.000   1.3786   0.01737   0.01022   0.0023  0.0170  0.0442  -3.8720   0.0000   0.2300
  12.200   1.3893   0.01765   0.01052   0.0041  0.0171  0.0441  -3.9606   0.0000   0.2284
  12.400   1.4023   0.01800   0.01089   0.0054  0.0171  0.0441  -4.0557   0.0000   0.2272
  12.600   1.4157   0.01838   0.01129   0.0065  0.0171  0.0440  -4.1526   0.0000   0.2260
  12.800   1.4289   0.01878   0.01172   0.0076  0.0206  0.0499  -4.2496   0.0000   0.2250
  13.000   1.4416   0.01921   0.01218   0.0087  0.0206  0.0499  -4.3509   0.0000   0.2239
  13.200   1.4539   0.01966   0.01266   0.0098  0.0206  0.0498  -4.4531   0.0000   0.2228
  13.400   1.4657   0.02015   0.01317   0.0110  0.0207  0.0498  -4.5545   0.0000   0.2217
  13.600   1.4770   0.02067   0.01373   0.0121  0.0207  0.0497  -4.6550   0.0000   0.2206
  13.800   1.4878   0.02124   0.01433   0.0132  0.0245  0.0560  -4.7547   0.0000   0.2196
  14.000   1.4981   0.02185   0.01497   0.0143  0.0245  0.0559  -4.8533   0.0000   0.2185
  14.200   1.5079   0.02251   0.01566   0.0153  0.0245  0.0559  -4.9546   0.0000   0.2175
  14.400   1.5172   0.02322   0.01641   0.0163  0.0246  0.0558  -5.0574   0.0000   0.2165
  14.600   1.5259   0.02400   0.01722   0.0173  0.0246  0.0558  -5.1586   0.0000   0.2155
  14.800   1.5342   0.02485   0.01811   0.0182  0.0287  0.0623  -5.2585   0.0000   0.2145
  15.000   1.5417   0.02578   0.01908   0.0190  0.0287  0.0623  -5.3563   0.0000   0.2136
  15.200   1.5488   0.02679   0.02013   0.0198  0.0287  0.0622  -5.4525   0.0000   0.2127
  15.400   1.5552   0.02790   0.02128   0.0204  0.0288  0.0622  -5.5466   0.0000   0.2119
  15.600   1.5607   0.02913   0.02255   0.0210  0.0288  0.0622  -5.6373   0.0000   0.2112
  15.800   1.5656   0.03047   0.02394   0.0215  0.0288  0.0621  -5.7258   0.0000   0.2104
  16.000   1.5696   0.03195   0.02547   0.0218  0.0332  0.0690  -5.8109   0.0000   0.2098
  16.200   1.5727   0.03357   0.02714   0.0220  0.0332  0.0689  -5.8937   0.0000   0.2092
  16.400   1.5747   0.03537   0.02899   0.0221  0.0333  0.0689  -5.9756   0.0000   0.2087
  16.600   1.5759   0.03734   0.03101   0.0220  0.0333  0.0689  -6.0534   0.0000   0.2082
  16.800   1.5756   0.03953   0.03326   0.0218  0.0333  0.0688  -6.1248   0.0000   0.2078
  17.000   1.5739   0.04194   0.03573   0.0214  0.0333  0.0688  -6.1889   0.0000   0.2075
  17.200   1.5708   0.04458   0.03844   0.0209  0.0333  0.0688  -6.2461   0.0000   0.2073
  17.400   1.5662   0.04752   0.04144   0.0202  0.0334  0.0688  -6.2948   0.0000   0.2072
  17.600   1.5595   0.05077   0.04476   0.0193  0.0381  0.0759  -6.3328   0.0000   0.2072
  17.800   1.5507   0.05437   0.04843   0.0181  0.0381  0.0759  -6.3593   0.0000   0.2073
  18.000   1.5398   0.05835   0.05249   0.0168  0.0381  0.0759  -6.3740   0.0000   0.2075
  18.200   1.5265   0.06273   0.05695   0.0153  0.0381  0.0759  -6.3749   0.0000   0.2078
  18.400   1.5102   0.06754   0.06185   0.0136  0.0381  0.0759  -6.3593   0.0000   0.2083
  18.600   1.4916   0.07281   0.06720   0.0116  0.0381  0.0759  -6.3288   0.0000   0.2089
  18.800   1.4705   0.07851   0.07300   0.0095  0.0381  0.0759  -6.2826   0.0000   0.2097
  19.000   1.4467   0.08462   0.07920   0.0071  0.0381  0.0759  -6.2196   0.0000   0.2107
  19.200   1.4216   0.09108   0.08576   0.0046  0.0381  0.0759  -6.1458   0.0000   0.2118
  19.400   1.3956   0.09774   0.09252   0.0019  0.0380  0.0759  -6.0630   0.0000   0.2132
  19.600   1.3693   0.10453   0.09940  -0.0010  0.0333  0.0688  -5.9745   0.0000   0.2146
  19.800   1.3453   0.11109   0.10604  -0.0038  0.0333  0.0688  -5.8948   0.0000   0.2162
  20.000   1.3230   0.11747   0.11251  -0.0066  0.0333  0.0689  -5.8202   0.0000   0.2179
  20.200   1.3036   0.12341   0.11852  -0.0093  0.0333  0.0689  -5.7588   0.0000   0.2196
  20.400   1.2863   0.12912   0.12431  -0.0120  0.0332  0.0689  -5.7062   0.0000   0.2213
  20.600   1.2709   0.13464   0.12989  -0.0148  0.0332  0.0689  -5.6607   0.0000   0.2231
  20.800   1.2571   0.13995   0.13526  -0.0175  0.0332  0.0689  -5.6215   0.0000   0.2249
  21.000   1.2445   0.14503   0.14040  -0.0201  0.0332  0.0689  -5.5877   0.0000   0.2267
  21.200   1.2354   0.14959   0.14501  -0.0226  0.0332  0.0689  -5.5727   0.0000   0.2283
  21.400   1.2268   0.15413   0.14960  -0.0251  0.0332  0.0689  -5.5585   0.0000   0.2300
  21.600   1.2182   0.15875   0.15427  -0.0278  0.0332  0.0689  -5.5405   0.0000   0.2318
  21.800   1.2135   0.16265   0.15821  -0.0301  0.0379  0.0760  -5.5484   0.0000   0.2333
  22.000   1.2064   0.16710   0.16271  -0.0328  0.0379  0.0760  -5.5352   0.0000   0.2352
  22.200   1.2032   0.17079   0.16644  -0.0350  0.0379  0.0760  -5.5491   0.0000   0.2366
  22.400   1.1972   0.17507   0.17076  -0.0377  0.0379  0.0760  -5.5394   0.0000   0.2385
  22.600   1.1950   0.17856   0.17429  -0.0400  0.0379  0.0760  -5.5572   0.0000   0.2399
  22.800   1.1899   0.18270   0.17848  -0.0427  0.0379  0.0760  -5.5499   0.0000   0.2419
  23.000   1.1886   0.18611   0.18193  -0.0449  0.0379  0.0760  -5.5704   0.0000   0.2433
  23.200   1.1849   0.19006   0.18591  -0.0476  0.0379  0.0760  -5.5741   0.0000   0.2451
  23.400   1.1837   0.19352   0.18940  -0.0500  0.0380  0.0760  -5.5961   0.0000   0.2467
  23.600   1.1829   0.19689   0.19281  -0.0524  0.0380  0.0760  -5.6209   0.0000   0.2482
  23.800   1.1801   0.20076   0.19672  -0.0551  0.0380  0.0760  -5.6249   0.0000   0.2501
  24.000   1.1802   0.20399   0.19999  -0.0574  0.0380  0.0760  -5.6537   0.0000   0.2515
  24.200   1.1780   0.20777   0.20380  -0.0601  0.0380  0.0759  -5.6594   0.0000   0.2534
  24.400   1.1779   0.21109   0.20715  -0.0626  0.0430  0.0833  -5.6835   0.0000   0.2549
  24.600   1.1786   0.21423   0.21032  -0.0650  0.0430  0.0833  -5.7133   0.0000   0.2564
  24.800   1.1765   0.21805   0.21419  -0.0678  0.0430  0.0833  -5.7138   0.0000   0.2584
  25.000   1.1774   0.22119   0.21735  -0.0702  0.0430  0.0833  -5.7424   0.0000   0.2598


