xflr5 v6.47

 Calculated polar for: NACA 23015

 1 1 Reynolds number fixed          Mach number fixed         

 xtrf =   1.000 (top)        1.000 (bottom)
 Mach =   0.000     Re =     4.000 e 6     Ncrit =   0.100

  alpha     CL        CD       CDp       Cm    Top Xtr Bot Xtr   Cpmin    Chinge    XCp    
 ------- -------- --------- --------- -------- ------- ------- -------- --------- ---------
 -10.000  -0.9645   0.01389   0.00700  -0.0166  0.0354  0.0154  -6.3195   0.0000   0.2207
  -9.800  -0.9446   0.01367   0.00676  -0.0161  0.0354  0.0154  -6.1468   0.0000   0.2210
  -9.600  -0.9245   0.01346   0.00653  -0.0157  0.0354  0.0153  -5.9757   0.0000   0.2212
  -9.400  -0.9043   0.01325   0.00631  -0.0153  0.0355  0.0153  -5.8058   0.0000   0.2215
  -9.200  -0.8839   0.01306   0.00609  -0.0149  0.0355  0.0153  -5.6371   0.0000   0.2217
  -9.000  -0.8634   0.01286   0.00588  -0.0146  0.0306  0.0122  -5.4698   0.0000   0.2219
  -8.800  -0.8428   0.01268   0.00568  -0.0142  0.0307  0.0122  -5.3041   0.0000   0.2221
  -8.600  -0.8221   0.01251   0.00548  -0.0139  0.0307  0.0122  -5.1400   0.0000   0.2223
  -8.400  -0.8012   0.01234   0.00529  -0.0136  0.0307  0.0122  -4.9774   0.0000   0.2224
  -8.200  -0.7803   0.01217   0.00511  -0.0133  0.0307  0.0122  -4.8164   0.0000   0.2225
  -8.000  -0.7593   0.01201   0.00494  -0.0130  0.0262  0.0094  -4.6575   0.0000   0.2225
  -7.800  -0.7381   0.01186   0.00477  -0.0127  0.0262  0.0094  -4.5005   0.0000   0.2226
  -7.600  -0.7169   0.01171   0.00460  -0.0125  0.0262  0.0094  -4.3452   0.0000   0.2226
  -7.400  -0.6956   0.01157   0.00444  -0.0122  0.0262  0.0094  -4.1987   0.0000   0.2225
  -7.200  -0.6742   0.01143   0.00429  -0.0120  0.0221  0.0070  -4.0560   0.0000   0.2224
  -7.000  -0.6527   0.01130   0.00415  -0.0118  0.0221  0.0070  -3.9150   0.0000   0.2223
  -6.800  -0.6312   0.01118   0.00401  -0.0116  0.0221  0.0070  -3.7756   0.0000   0.2222
  -6.600  -0.6095   0.01106   0.00387  -0.0114  0.0221  0.0070  -3.6378   0.0000   0.2219
  -6.400  -0.5878   0.01094   0.00375  -0.0112  0.0221  0.0070  -3.5017   0.0000   0.2217
  -6.200  -0.5660   0.01083   0.00362  -0.0110  0.0183  0.0049  -3.3678   0.0000   0.2213
  -6.000  -0.5442   0.01073   0.00350  -0.0108  0.0183  0.0049  -3.2355   0.0000   0.2210
  -5.800  -0.5223   0.01063   0.00339  -0.0107  0.0183  0.0049  -3.1050   0.0000   0.2205
  -5.600  -0.5003   0.01053   0.00328  -0.0105  0.0183  0.0049  -2.9761   0.0000   0.2200
  -5.400  -0.4783   0.01044   0.00318  -0.0104  0.0184  0.0049  -2.8490   0.0000   0.2194
  -5.200  -0.4562   0.01035   0.00308  -0.0103  0.0149  0.0032  -2.7236   0.0000   0.2186
  -5.000  -0.4341   0.01027   0.00299  -0.0102  0.0149  0.0032  -2.6000   0.0000   0.2178
  -4.800  -0.4119   0.01019   0.00290  -0.0100  0.0149  0.0032  -2.4782   0.0000   0.2168
  -4.600  -0.3897   0.01012   0.00281  -0.0099  0.0149  0.0032  -2.3627   0.0000   0.2157
  -4.400  -0.3674   0.01005   0.00273  -0.0099  0.0118  0.0018  -2.2533   0.0000   0.2145
  -4.200  -0.3451   0.00998   0.00266  -0.0098  0.0118  0.0018  -2.1455   0.0000   0.2130
  -4.000  -0.3228   0.00992   0.00259  -0.0097  0.0118  0.0018  -2.0392   0.0000   0.2112
  -3.800  -0.3004   0.00986   0.00252  -0.0096  0.0118  0.0018  -1.9345   0.0000   0.2092
  -3.600  -0.2779   0.00981   0.00246  -0.0096  0.0118  0.0018  -1.8316   0.0000   0.2068
  -3.400  -0.2555   0.00976   0.00240  -0.0095  0.0090  0.0008  -1.7301   0.0000   0.2039
  -3.200  -0.2330   0.00971   0.00235  -0.0095  0.0091  0.0008  -1.6303   0.0000   0.2004
  -3.000  -0.2105   0.00967   0.00230  -0.0094  0.0091  0.0008  -1.5322   0.0000   0.1962
  -2.800  -0.1879   0.00963   0.00225  -0.0094  0.0091  0.0008  -1.4406   0.0000   0.1908
  -2.600  -0.1654   0.00960   0.00221  -0.0093  0.0091  0.0008  -1.3534   0.0000   0.1839
  -2.400  -0.1428   0.00957   0.00217  -0.0093  0.0067  0.0002  -1.2676   0.0000   0.1748
  -2.200  -0.1202   0.00954   0.00214  -0.0093  0.0067  0.0002  -1.1831   0.0000   0.1623
  -2.000  -0.0975   0.00952   0.00211  -0.0093  0.0067  0.0002  -1.1001   0.0000   0.1438
  -1.800  -0.0749   0.00950   0.00208  -0.0092  0.0067  0.0002  -1.0186   0.0000   0.1140
  -1.600  -0.0522   0.00948   0.00206  -0.0092  0.0046  0.0000  -0.9412   0.0000   0.0583
  -1.400  -0.0296   0.00947   0.00204  -0.0092  0.0046  0.0000  -0.8691   0.0000  -0.0828
  -1.200  -0.0069   0.00945   0.00203  -0.0092  0.0046  0.0000  -0.7982   0.0000  -1.1512
  -1.000   0.0158   0.00945   0.00202  -0.0092  0.0047  0.0000  -0.7285   0.0000   0.8536
  -0.800   0.0385   0.00944   0.00201  -0.0092  0.0047  0.0000  -0.6994   0.0000   0.4934
  -0.600   0.0611   0.00944   0.00200  -0.0092  0.0030  0.0002  -0.7275   0.0000   0.4005
  -0.400   0.0838   0.00945   0.00200  -0.0092  0.0030  0.0002  -0.7558   0.0000   0.3579
  -0.200   0.1065   0.00945   0.00201  -0.0092  0.0030  0.0002  -0.7843   0.0000   0.3334
   0.000   0.1292   0.00946   0.00201  -0.0092  0.0030  0.0002  -0.8130   0.0000   0.3175
   0.200   0.1519   0.00947   0.00202  -0.0092  0.0017  0.0007  -0.8432   0.0000   0.3064
   0.400   0.1746   0.00949   0.00203  -0.0093  0.0017  0.0007  -0.8735   0.0000   0.2982
   0.600   0.1972   0.00951   0.00205  -0.0093  0.0017  0.0007  -0.9040   0.0000   0.2918
   0.800   0.2199   0.00953   0.00207  -0.0093  0.0017  0.0007  -0.9347   0.0000   0.2867
   1.000   0.2425   0.00955   0.00209  -0.0093  0.0017  0.0007  -0.9657   0.0000   0.2826
   1.200   0.2651   0.00958   0.00212  -0.0093  0.0007  0.0017  -0.9981   0.0000   0.2792
   1.400   0.2878   0.00961   0.00215  -0.0093  0.0007  0.0017  -1.0308   0.0000   0.2763
   1.600   0.3104   0.00965   0.00218  -0.0093  0.0007  0.0017  -1.0637   0.0000   0.2738
   1.800   0.3329   0.00969   0.00222  -0.0093  0.0007  0.0017  -1.0968   0.0000   0.2716
   2.000   0.3555   0.00973   0.00226  -0.0093  0.0007  0.0017  -1.1301   0.0000   0.2697
   2.200   0.3780   0.00977   0.00231  -0.0093  0.0002  0.0031  -1.1650   0.0000   0.2680
   2.400   0.4005   0.00982   0.00235  -0.0094  0.0002  0.0031  -1.2002   0.0000   0.2664
   2.600   0.4230   0.00987   0.00240  -0.0094  0.0002  0.0031  -1.2355   0.0000   0.2650
   2.800   0.4455   0.00992   0.00246  -0.0094  0.0002  0.0031  -1.2711   0.0000   0.2638
   3.000   0.4679   0.00998   0.00251  -0.0094  0.0000  0.0049  -1.3069   0.0000   0.2626
   3.200   0.4903   0.01004   0.00257  -0.0094  0.0000  0.0049  -1.3445   0.0000   0.2615
   3.400   0.5126   0.01010   0.00264  -0.0094  0.0000  0.0049  -1.3823   0.0000   0.2605
   3.600   0.5349   0.01017   0.00271  -0.0093  0.0000  0.0049  -1.4203   0.0000   0.2596
   3.800   0.5572   0.01024   0.00278  -0.0093  0.0000  0.0049  -1.4586   0.0000   0.2587
   4.000   0.5794   0.01031   0.00286  -0.0093  0.0002  0.0072  -1.4973   0.0000   0.2579
   4.200   0.6016   0.01039   0.00293  -0.0093  0.0002  0.0071  -1.5376   0.0000   0.2571
   4.400   0.6237   0.01047   0.00302  -0.0093  0.0002  0.0071  -1.5782   0.0000   0.2563
   4.600   0.6458   0.01055   0.00310  -0.0092  0.0002  0.0071  -1.6190   0.0000   0.2556
   4.800   0.6679   0.01064   0.00320  -0.0092  0.0008  0.0098  -1.6600   0.0000   0.2549
   5.000   0.6898   0.01073   0.00329  -0.0092  0.0008  0.0097  -1.7022   0.0000   0.2542
   5.200   0.7118   0.01082   0.00339  -0.0091  0.0008  0.0097  -1.7455   0.0000   0.2535
   5.400   0.7336   0.01092   0.00349  -0.0091  0.0008  0.0097  -1.7890   0.0000   0.2529
   5.600   0.7554   0.01102   0.00360  -0.0090  0.0017  0.0128  -1.8328   0.0000   0.2522
   5.800   0.7772   0.01113   0.00371  -0.0089  0.0017  0.0127  -1.8770   0.0000   0.2516
   6.000   0.7988   0.01123   0.00382  -0.0089  0.0017  0.0127  -1.9232   0.0000   0.2510
   6.200   0.8204   0.01135   0.00394  -0.0088  0.0017  0.0127  -1.9695   0.0000   0.2504
   6.400   0.8419   0.01147   0.00406  -0.0087  0.0017  0.0126  -2.0161   0.0000   0.2498
   6.600   0.8634   0.01159   0.00420  -0.0086  0.0029  0.0161  -2.0632   0.0000   0.2492
   6.800   0.8847   0.01171   0.00433  -0.0085  0.0029  0.0160  -2.1123   0.0000   0.2486
   7.000   0.9060   0.01184   0.00446  -0.0084  0.0029  0.0160  -2.1616   0.0000   0.2480
   7.200   0.9272   0.01198   0.00461  -0.0082  0.0029  0.0160  -2.2112   0.0000   0.2475
   7.400   0.9482   0.01212   0.00476  -0.0081  0.0045  0.0198  -2.2621   0.0000   0.2469
   7.600   0.9692   0.01226   0.00491  -0.0079  0.0045  0.0197  -2.3143   0.0000   0.2463
   7.800   0.9901   0.01241   0.00507  -0.0078  0.0045  0.0197  -2.3667   0.0000   0.2457
   8.000   1.0108   0.01257   0.00523  -0.0076  0.0046  0.0196  -2.4200   0.0000   0.2451
   8.200   1.0315   0.01272   0.00540  -0.0074  0.0064  0.0238  -2.4753   0.0000   0.2445
   8.400   1.0520   0.01289   0.00557  -0.0072  0.0065  0.0238  -2.5308   0.0000   0.2439
   8.600   1.0723   0.01306   0.00576  -0.0070  0.0065  0.0237  -2.5876   0.0000   0.2433
   8.800   1.0926   0.01323   0.00594  -0.0067  0.0065  0.0237  -2.6461   0.0000   0.2427
   9.000   1.1127   0.01341   0.00613  -0.0064  0.0065  0.0236  -2.7050   0.0000   0.2421
   9.200   1.1326   0.01360   0.00633  -0.0062  0.0087  0.0281  -2.7667   0.0000   0.2415
   9.400   1.1523   0.01379   0.00654  -0.0059  0.0088  0.0281  -2.8287   0.0000   0.2408
   9.600   1.1719   0.01399   0.00675  -0.0055  0.0088  0.0281  -2.8938   0.0000   0.2402
   9.800   1.1913   0.01420   0.00697  -0.0052  0.0088  0.0280  -2.9603   0.0000   0.2395
  10.000   1.2105   0.01441   0.00720  -0.0048  0.0113  0.0329  -3.0291   0.0000   0.2388
  10.200   1.2295   0.01463   0.00743  -0.0044  0.0114  0.0328  -3.1015   0.0000   0.2382
  10.400   1.2482   0.01485   0.00767  -0.0040  0.0114  0.0328  -3.1772   0.0000   0.2375
  10.600   1.2667   0.01509   0.00792  -0.0035  0.0114  0.0327  -3.2566   0.0000   0.2367
  10.800   1.2849   0.01533   0.00818  -0.0030  0.0143  0.0379  -3.3396   0.0000   0.2360
  11.000   1.3028   0.01558   0.00845  -0.0025  0.0143  0.0379  -3.4253   0.0000   0.2352
  11.200   1.3204   0.01584   0.00873  -0.0019  0.0143  0.0378  -3.5159   0.0000   0.2344
  11.400   1.3376   0.01611   0.00902  -0.0012  0.0144  0.0378  -3.6067   0.0000   0.2336
  11.600   1.3545   0.01638   0.00931  -0.0005  0.0144  0.0377  -3.7030   0.0000   0.2328
  11.800   1.3709   0.01667   0.00962   0.0002  0.0176  0.0432  -3.7990   0.0000   0.2319
  12.000   1.3868   0.01697   0.00994   0.0010  0.0176  0.0432  -3.8962   0.0000   0.2310
  12.200   1.4000   0.01725   0.01025   0.0024  0.0176  0.0432  -3.9916   0.0000   0.2297
  12.400   1.4108   0.01754   0.01056   0.0041  0.0177  0.0431  -4.0813   0.0000   0.2281
  12.600   1.4240   0.01790   0.01094   0.0054  0.0212  0.0490  -4.1779   0.0000   0.2269
  12.800   1.4373   0.01828   0.01135   0.0065  0.0212  0.0489  -4.2763   0.0000   0.2258
  13.000   1.4503   0.01869   0.01178   0.0076  0.0212  0.0489  -4.3804   0.0000   0.2247
  13.200   1.4629   0.01912   0.01224   0.0087  0.0213  0.0488  -4.4837   0.0000   0.2236
  13.400   1.4750   0.01958   0.01273   0.0099  0.0213  0.0488  -4.5864   0.0000   0.2225
  13.600   1.4866   0.02008   0.01325   0.0110  0.0251  0.0549  -4.6884   0.0000   0.2214
  13.800   1.4978   0.02061   0.01381   0.0121  0.0252  0.0549  -4.7894   0.0000   0.2204
  14.000   1.5084   0.02118   0.01441   0.0132  0.0252  0.0548  -4.8897   0.0000   0.2193
  14.200   1.5186   0.02180   0.01506   0.0143  0.0252  0.0548  -4.9950   0.0000   0.2182
  14.400   1.5282   0.02247   0.01576   0.0153  0.0252  0.0548  -5.0996   0.0000   0.2172
  14.600   1.5373   0.02320   0.01652   0.0164  0.0253  0.0547  -5.2027   0.0000   0.2162
  14.800   1.5458   0.02399   0.01735   0.0173  0.0294  0.0612  -5.3043   0.0000   0.2152
  15.000   1.5538   0.02486   0.01826   0.0182  0.0294  0.0611  -5.4046   0.0000   0.2143
  15.200   1.5612   0.02580   0.01924   0.0190  0.0295  0.0611  -5.5027   0.0000   0.2134
  15.400   1.5680   0.02684   0.02031   0.0198  0.0295  0.0611  -5.5990   0.0000   0.2125
  15.600   1.5742   0.02798   0.02149   0.0204  0.0295  0.0610  -5.6929   0.0000   0.2117
  15.800   1.5795   0.02922   0.02278   0.0210  0.0340  0.0678  -5.7838   0.0000   0.2109
  16.000   1.5842   0.03059   0.02420   0.0214  0.0340  0.0678  -5.8722   0.0000   0.2102
  16.200   1.5880   0.03210   0.02575   0.0217  0.0340  0.0677  -5.9627   0.0000   0.2096
  16.400   1.5908   0.03375   0.02745   0.0219  0.0341  0.0677  -6.0493   0.0000   0.2090
  16.600   1.5925   0.03559   0.02934   0.0220  0.0341  0.0677  -6.1308   0.0000   0.2084
  16.800   1.5933   0.03761   0.03141   0.0219  0.0341  0.0676  -6.2077   0.0000   0.2080
  17.000   1.5928   0.03983   0.03369   0.0217  0.0341  0.0676  -6.2784   0.0000   0.2076
  17.200   1.5905   0.04230   0.03622   0.0213  0.0341  0.0676  -6.3405   0.0000   0.2073
  17.400   1.5869   0.04502   0.03901   0.0207  0.0389  0.0746  -6.3959   0.0000   0.2071
  17.600   1.5818   0.04802   0.04206   0.0199  0.0389  0.0746  -6.4431   0.0000   0.2070
  17.800   1.5747   0.05133   0.04544   0.0190  0.0389  0.0746  -6.4792   0.0000   0.2070
  18.000   1.5654   0.05499   0.04918   0.0179  0.0390  0.0746  -6.5035   0.0000   0.2071
  18.200   1.5538   0.05905   0.05332   0.0165  0.0390  0.0746  -6.5154   0.0000   0.2073
  18.400   1.5398   0.06353   0.05787   0.0150  0.0390  0.0746  -6.5125   0.0000   0.2076
  18.600   1.5228   0.06845   0.06288   0.0132  0.0390  0.0746  -6.4929   0.0000   0.2081
  18.800   1.5032   0.07385   0.06837   0.0112  0.0390  0.0746  -6.4572   0.0000   0.2088
  19.000   1.4808   0.07972   0.07433   0.0090  0.0389  0.0746  -6.4040   0.0000   0.2096
  19.200   1.4560   0.08600   0.08071   0.0065  0.0389  0.0746  -6.3346   0.0000   0.2106
  19.400   1.4302   0.09257   0.08737   0.0039  0.0389  0.0746  -6.2558   0.0000   0.2118
  19.600   1.4040   0.09922   0.09412   0.0012  0.0389  0.0747  -6.1715   0.0000   0.2131
  19.800   1.3783   0.10591   0.10090  -0.0016  0.0389  0.0747  -6.0856   0.0000   0.2146
  20.000   1.3530   0.11270   0.10778  -0.0045  0.0389  0.0747  -5.9972   0.0000   0.2163
  20.200   1.3316   0.11889   0.11405  -0.0073  0.0388  0.0747  -5.9273   0.0000   0.2179
  20.400   1.3121   0.12486   0.12009  -0.0100  0.0388  0.0747  -5.8648   0.0000   0.2196
  20.600   1.2944   0.13067   0.12596  -0.0128  0.0388  0.0747  -5.8085   0.0000   0.2213
  20.800   1.2796   0.13607   0.13143  -0.0155  0.0388  0.0748  -5.7664   0.0000   0.2231
  21.000   1.2657   0.14137   0.13679  -0.0183  0.0388  0.0748  -5.7265   0.0000   0.2249
  21.200   1.2531   0.14648   0.14196  -0.0210  0.0388  0.0748  -5.6913   0.0000   0.2267
  21.400   1.2427   0.15126   0.14679  -0.0236  0.0388  0.0748  -5.6679   0.0000   0.2284
  21.600   1.2356   0.15552   0.15110  -0.0260  0.0388  0.0748  -5.6632   0.0000   0.2300
  21.800   1.2266   0.16021   0.15584  -0.0287  0.0388  0.0748  -5.6426   0.0000   0.2319
  22.000   1.2222   0.16408   0.15974  -0.0310  0.0388  0.0748  -5.6513   0.0000   0.2333
  22.200   1.2149   0.16855   0.16426  -0.0338  0.0388  0.0748  -5.6368   0.0000   0.2352
  22.400   1.2117   0.17223   0.16798  -0.0361  0.0388  0.0748  -5.6508   0.0000   0.2367
  22.600   1.2055   0.17652   0.17232  -0.0388  0.0388  0.0748  -5.6394   0.0000   0.2386
  22.800   1.2034   0.17998   0.17581  -0.0410  0.0388  0.0747  -5.6585   0.0000   0.2400
  23.000   1.1981   0.18418   0.18006  -0.0438  0.0388  0.0747  -5.6516   0.0000   0.2419
  23.200   1.1969   0.18756   0.18347  -0.0461  0.0388  0.0747  -5.6777   0.0000   0.2434
  23.400   1.1927   0.19162   0.18757  -0.0488  0.0388  0.0747  -5.6765   0.0000   0.2453
  23.600   1.1919   0.19499   0.19097  -0.0512  0.0388  0.0747  -5.7022   0.0000   0.2468
  23.800   1.1897   0.19867   0.19469  -0.0538  0.0388  0.0747  -5.7145   0.0000   0.2485
  24.000   1.1881   0.20228   0.19833  -0.0563  0.0388  0.0747  -5.7289   0.0000   0.2502
  24.200   1.1881   0.20550   0.20158  -0.0587  0.0439  0.0820  -5.7582   0.0000   0.2516
  24.400   1.1855   0.20940   0.20552  -0.0615  0.0439  0.0820  -5.7588   0.0000   0.2536
  24.600   1.1857   0.21262   0.20877  -0.0639  0.0439  0.0820  -5.7863   0.0000   0.2551
  24.800   1.1856   0.21593   0.21212  -0.0664  0.0439  0.0820  -5.8088   0.0000   0.2567
  25.000   1.1840   0.21964   0.21587  -0.0692  0.0439  0.0820  -5.8138   0.0000   0.2586


