xflr5 v6.47

 Calculated polar for: NACA 23015

 1 1 Reynolds number fixed          Mach number fixed         

 xtrf =   1.000 (top)        1.000 (bottom)
 Mach =   0.000     Re =     2.500 e 6     Ncrit =   0.100

  alpha     CL        CD       CDp       Cm    Top Xtr Bot Xtr   Cpmin    Chinge    XCp    
 ------- -------- --------- --------- -------- ------- ------- -------- --------- ---------
 -10.000  -0.9525   0.01513   0.00778  -0.0183  0.0385  0.0136  -6.2643   0.0000   0.2185
  -9.800  -0.9331   0.01489   0.00751  -0.0178  0.0385  0.0135  -6.0947   0.0000   0.2189
  -9.600  -0.9134   0.01466   0.00725  -0.0174  0.0385  0.0135  -5.9262   0.0000   0.2192
  -9.400  -0.8936   0.01443   0.00700  -0.0169  0.0385  0.0135  -5.7589   0.0000   0.2195
  -9.200  -0.8737   0.01422   0.00676  -0.0165  0.0386  0.0135  -5.5929   0.0000   0.2197
  -9.000  -0.8536   0.01401   0.00652  -0.0161  0.0335  0.0106  -5.4280   0.0000   0.2199
  -8.800  -0.8334   0.01381   0.00630  -0.0157  0.0335  0.0106  -5.2646   0.0000   0.2201
  -8.600  -0.8130   0.01361   0.00608  -0.0153  0.0335  0.0106  -5.1026   0.0000   0.2203
  -8.400  -0.7925   0.01342   0.00588  -0.0149  0.0336  0.0106  -4.9421   0.0000   0.2205
  -8.200  -0.7720   0.01324   0.00567  -0.0146  0.0288  0.0080  -4.7831   0.0000   0.2206
  -8.000  -0.7513   0.01307   0.00547  -0.0142  0.0288  0.0080  -4.6257   0.0000   0.2206
  -7.800  -0.7305   0.01290   0.00529  -0.0139  0.0289  0.0080  -4.4699   0.0000   0.2207
  -7.600  -0.7096   0.01274   0.00510  -0.0136  0.0289  0.0080  -4.3174   0.0000   0.2207
  -7.400  -0.6886   0.01258   0.00493  -0.0133  0.0289  0.0080  -4.1749   0.0000   0.2207
  -7.200  -0.6675   0.01243   0.00476  -0.0130  0.0245  0.0058  -4.0337   0.0000   0.2206
  -7.000  -0.6463   0.01229   0.00460  -0.0128  0.0245  0.0058  -3.8941   0.0000   0.2205
  -6.800  -0.6250   0.01215   0.00444  -0.0125  0.0246  0.0057  -3.7560   0.0000   0.2204
  -6.600  -0.6037   0.01202   0.00429  -0.0123  0.0246  0.0057  -3.6195   0.0000   0.2201
  -6.400  -0.5822   0.01189   0.00415  -0.0121  0.0246  0.0057  -3.4846   0.0000   0.2199
  -6.200  -0.5607   0.01177   0.00401  -0.0119  0.0205  0.0039  -3.3512   0.0000   0.2196
  -6.000  -0.5392   0.01165   0.00388  -0.0116  0.0206  0.0039  -3.2195   0.0000   0.2192
  -5.800  -0.5175   0.01154   0.00375  -0.0115  0.0206  0.0039  -3.0896   0.0000   0.2188
  -5.600  -0.4958   0.01143   0.00363  -0.0113  0.0206  0.0039  -2.9615   0.0000   0.2182
  -5.400  -0.4740   0.01133   0.00352  -0.0111  0.0206  0.0038  -2.8350   0.0000   0.2176
  -5.200  -0.4522   0.01124   0.00341  -0.0109  0.0169  0.0024  -2.7103   0.0000   0.2169
  -5.000  -0.4303   0.01115   0.00330  -0.0108  0.0169  0.0024  -2.5875   0.0000   0.2161
  -4.800  -0.4083   0.01106   0.00320  -0.0106  0.0170  0.0023  -2.4664   0.0000   0.2151
  -4.600  -0.3863   0.01098   0.00311  -0.0105  0.0170  0.0023  -2.3551   0.0000   0.2140
  -4.400  -0.3643   0.01090   0.00302  -0.0104  0.0136  0.0012  -2.2459   0.0000   0.2127
  -4.200  -0.3422   0.01083   0.00294  -0.0103  0.0136  0.0012  -2.1384   0.0000   0.2112
  -4.000  -0.3200   0.01076   0.00286  -0.0101  0.0136  0.0012  -2.0325   0.0000   0.2095
  -3.800  -0.2979   0.01070   0.00278  -0.0100  0.0137  0.0012  -1.9283   0.0000   0.2075
  -3.600  -0.2756   0.01064   0.00272  -0.0099  0.0137  0.0012  -1.8257   0.0000   0.2050
  -3.400  -0.2534   0.01058   0.00265  -0.0099  0.0107  0.0004  -1.7247   0.0000   0.2021
  -3.200  -0.2311   0.01053   0.00259  -0.0098  0.0107  0.0004  -1.6255   0.0000   0.1986
  -3.000  -0.2088   0.01049   0.00253  -0.0097  0.0107  0.0004  -1.5279   0.0000   0.1943
  -2.800  -0.1864   0.01044   0.00248  -0.0096  0.0107  0.0004  -1.4383   0.0000   0.1889
  -2.600  -0.1640   0.01040   0.00244  -0.0096  0.0107  0.0004  -1.3512   0.0000   0.1820
  -2.400  -0.1417   0.01037   0.00239  -0.0095  0.0081  0.0001  -1.2656   0.0000   0.1729
  -2.200  -0.1192   0.01034   0.00235  -0.0094  0.0081  0.0001  -1.1815   0.0000   0.1602
  -2.000  -0.0968   0.01031   0.00232  -0.0094  0.0081  0.0001  -1.0988   0.0000   0.1416
  -1.800  -0.0743   0.01029   0.00229  -0.0093  0.0081  0.0001  -1.0176   0.0000   0.1116
  -1.600  -0.0519   0.01027   0.00226  -0.0093  0.0058  0.0000  -0.9415   0.0000   0.0555
  -1.400  -0.0294   0.01025   0.00224  -0.0093  0.0058  0.0000  -0.8695   0.0000  -0.0865
  -1.200  -0.0069   0.01024   0.00222  -0.0092  0.0058  0.0000  -0.7987   0.0000  -1.1552
  -1.000   0.0156   0.01023   0.00221  -0.0092  0.0059  0.0000  -0.7291   0.0000   0.8590
  -0.800   0.0381   0.01023   0.00220  -0.0092  0.0059  0.0000  -0.6986   0.0000   0.4944
  -0.600   0.0606   0.01023   0.00220  -0.0091  0.0039  0.0004  -0.7265   0.0000   0.4005
  -0.400   0.0831   0.01023   0.00219  -0.0091  0.0039  0.0004  -0.7547   0.0000   0.3575
  -0.200   0.1056   0.01024   0.00220  -0.0091  0.0040  0.0004  -0.7830   0.0000   0.3328
   0.000   0.1281   0.01025   0.00220  -0.0091  0.0040  0.0004  -0.8115   0.0000   0.3168
   0.200   0.1506   0.01026   0.00221  -0.0090  0.0024  0.0012  -0.8415   0.0000   0.3056
   0.400   0.1731   0.01028   0.00223  -0.0090  0.0024  0.0012  -0.8717   0.0000   0.2973
   0.600   0.1956   0.01030   0.00224  -0.0090  0.0024  0.0012  -0.9020   0.0000   0.2908
   0.800   0.2181   0.01032   0.00227  -0.0090  0.0024  0.0012  -0.9326   0.0000   0.2857
   1.000   0.2406   0.01035   0.00229  -0.0090  0.0024  0.0012  -0.9633   0.0000   0.2816
   1.200   0.2630   0.01038   0.00232  -0.0090  0.0012  0.0025  -0.9955   0.0000   0.2781
   1.400   0.2855   0.01041   0.00235  -0.0089  0.0012  0.0025  -1.0280   0.0000   0.2752
   1.600   0.3079   0.01045   0.00239  -0.0089  0.0012  0.0025  -1.0607   0.0000   0.2727
   1.800   0.3303   0.01049   0.00243  -0.0089  0.0012  0.0025  -1.0936   0.0000   0.2705
   2.000   0.3526   0.01053   0.00247  -0.0089  0.0013  0.0025  -1.1267   0.0000   0.2685
   2.200   0.3750   0.01058   0.00252  -0.0088  0.0005  0.0041  -1.1612   0.0000   0.2668
   2.400   0.3973   0.01063   0.00257  -0.0088  0.0005  0.0041  -1.1962   0.0000   0.2652
   2.600   0.4196   0.01068   0.00263  -0.0088  0.0005  0.0041  -1.2314   0.0000   0.2638
   2.800   0.4418   0.01074   0.00269  -0.0088  0.0005  0.0041  -1.2667   0.0000   0.2626
   3.000   0.4641   0.01080   0.00275  -0.0087  0.0001  0.0062  -1.3023   0.0000   0.2614
   3.200   0.4862   0.01087   0.00282  -0.0087  0.0001  0.0062  -1.3395   0.0000   0.2603
   3.400   0.5084   0.01094   0.00289  -0.0087  0.0001  0.0062  -1.3770   0.0000   0.2593
   3.600   0.5305   0.01101   0.00296  -0.0086  0.0001  0.0062  -1.4148   0.0000   0.2583
   3.800   0.5526   0.01108   0.00304  -0.0086  0.0001  0.0062  -1.4528   0.0000   0.2574
   4.000   0.5746   0.01116   0.00312  -0.0085  0.0000  0.0087  -1.4910   0.0000   0.2566
   4.200   0.5966   0.01125   0.00321  -0.0085  0.0000  0.0087  -1.5311   0.0000   0.2558
   4.400   0.6185   0.01133   0.00330  -0.0084  0.0000  0.0086  -1.5714   0.0000   0.2550
   4.600   0.6403   0.01142   0.00340  -0.0083  0.0000  0.0086  -1.6119   0.0000   0.2543
   4.800   0.6621   0.01152   0.00350  -0.0083  0.0004  0.0116  -1.6525   0.0000   0.2535
   5.000   0.6839   0.01162   0.00360  -0.0082  0.0004  0.0115  -1.6942   0.0000   0.2528
   5.200   0.7056   0.01172   0.00371  -0.0081  0.0004  0.0115  -1.7371   0.0000   0.2522
   5.400   0.7272   0.01183   0.00382  -0.0080  0.0004  0.0115  -1.7803   0.0000   0.2515
   5.600   0.7487   0.01194   0.00394  -0.0079  0.0004  0.0114  -1.8236   0.0000   0.2509
   5.800   0.7702   0.01205   0.00406  -0.0078  0.0011  0.0148  -1.8672   0.0000   0.2502
   6.000   0.7916   0.01217   0.00419  -0.0077  0.0011  0.0147  -1.9129   0.0000   0.2496
   6.200   0.8129   0.01230   0.00432  -0.0076  0.0011  0.0147  -1.9588   0.0000   0.2490
   6.400   0.8342   0.01242   0.00446  -0.0074  0.0011  0.0146  -2.0049   0.0000   0.2484
   6.600   0.8553   0.01256   0.00460  -0.0073  0.0021  0.0184  -2.0512   0.0000   0.2478
   6.800   0.8764   0.01269   0.00475  -0.0071  0.0021  0.0183  -2.0998   0.0000   0.2472
   7.000   0.8973   0.01284   0.00490  -0.0070  0.0021  0.0183  -2.1486   0.0000   0.2466
   7.200   0.9182   0.01298   0.00506  -0.0068  0.0021  0.0182  -2.1976   0.0000   0.2460
   7.400   0.9389   0.01314   0.00522  -0.0066  0.0035  0.0223  -2.2475   0.0000   0.2454
   7.600   0.9595   0.01329   0.00539  -0.0064  0.0035  0.0222  -2.2991   0.0000   0.2448
   7.800   0.9800   0.01346   0.00557  -0.0062  0.0035  0.0222  -2.3509   0.0000   0.2441
   8.000   1.0004   0.01363   0.00575  -0.0060  0.0035  0.0221  -2.4030   0.0000   0.2435
   8.200   1.0206   0.01380   0.00594  -0.0057  0.0036  0.0220  -2.4575   0.0000   0.2429
   8.400   1.0407   0.01398   0.00613  -0.0054  0.0053  0.0266  -2.5122   0.0000   0.2423
   8.600   1.0607   0.01417   0.00633  -0.0051  0.0053  0.0265  -2.5677   0.0000   0.2417
   9.000   1.1000   0.01456   0.00675  -0.0045  0.0053  0.0263  -2.6830   0.0000   0.2404
   9.200   1.1195   0.01476   0.00698  -0.0041  0.0073  0.0312  -2.7431   0.0000   0.2397
   9.400   1.1387   0.01498   0.00720  -0.0038  0.0074  0.0311  -2.8038   0.0000   0.2390
   9.600   1.1577   0.01520   0.00744  -0.0034  0.0074  0.0311  -2.8670   0.0000   0.2383
   9.800   1.1765   0.01542   0.00768  -0.0029  0.0074  0.0310  -2.9312   0.0000   0.2376
  10.000   1.1950   0.01566   0.00794  -0.0025  0.0097  0.0362  -2.9984   0.0000   0.2369
  10.200   1.2133   0.01590   0.00820  -0.0020  0.0098  0.0361  -3.0680   0.0000   0.2362
  10.400   1.2313   0.01615   0.00847  -0.0014  0.0098  0.0360  -3.1403   0.0000   0.2354
  10.600   1.2489   0.01641   0.00875  -0.0008  0.0098  0.0360  -3.2157   0.0000   0.2346
  10.800   1.2663   0.01668   0.00904  -0.0002  0.0099  0.0359  -3.2944   0.0000   0.2338
  11.000   1.2832   0.01696   0.00934   0.0005  0.0125  0.0414  -3.3769   0.0000   0.2330
  11.200   1.2997   0.01725   0.00965   0.0012  0.0125  0.0414  -3.4612   0.0000   0.2321
  11.400   1.3158   0.01755   0.00998   0.0020  0.0126  0.0413  -3.5487   0.0000   0.2312
  11.600   1.3302   0.01784   0.01030   0.0031  0.0126  0.0412  -3.6345   0.0000   0.2300
  11.800   1.3415   0.01813   0.01061   0.0048  0.0156  0.0471  -3.7169   0.0000   0.2285
  12.000   1.3543   0.01847   0.01098   0.0061  0.0156  0.0470  -3.8039   0.0000   0.2272
  12.200   1.3678   0.01885   0.01139   0.0072  0.0156  0.0470  -3.8953   0.0000   0.2261
  12.400   1.3811   0.01926   0.01183   0.0083  0.0157  0.0469  -3.9902   0.0000   0.2250
  12.600   1.3940   0.01969   0.01228   0.0094  0.0157  0.0468  -4.0848   0.0000   0.2239
  12.800   1.4065   0.02015   0.01278   0.0105  0.0190  0.0530  -4.1788   0.0000   0.2228
  13.000   1.4184   0.02064   0.01330   0.0115  0.0190  0.0529  -4.2746   0.0000   0.2218
  13.200   1.4299   0.02117   0.01386   0.0126  0.0191  0.0529  -4.3728   0.0000   0.2207
  13.400   1.4408   0.02173   0.01446   0.0137  0.0191  0.0528  -4.4701   0.0000   0.2196
  13.600   1.4513   0.02235   0.01510   0.0148  0.0191  0.0527  -4.5664   0.0000   0.2186
  13.800   1.4613   0.02301   0.01580   0.0158  0.0227  0.0592  -4.6616   0.0000   0.2175
  14.000   1.4708   0.02372   0.01655   0.0168  0.0228  0.0591  -4.7561   0.0000   0.2166
  14.200   1.4797   0.02450   0.01737   0.0177  0.0228  0.0591  -4.8509   0.0000   0.2156
  14.400   1.4881   0.02535   0.01826   0.0186  0.0228  0.0590  -4.9484   0.0000   0.2146
  14.600   1.4958   0.02628   0.01923   0.0194  0.0228  0.0590  -5.0440   0.0000   0.2137
  14.800   1.5030   0.02729   0.02028   0.0202  0.0229  0.0589  -5.1379   0.0000   0.2129
  15.000   1.5095   0.02840   0.02144   0.0208  0.0268  0.0657  -5.2298   0.0000   0.2121
  15.200   1.5152   0.02963   0.02272   0.0213  0.0268  0.0656  -5.3187   0.0000   0.2113
  15.400   1.5203   0.03097   0.02410   0.0218  0.0269  0.0656  -5.4051   0.0000   0.2106
  15.600   1.5245   0.03245   0.02564   0.0221  0.0269  0.0655  -5.4884   0.0000   0.2100
  15.800   1.5279   0.03407   0.02731   0.0223  0.0269  0.0655  -5.5680   0.0000   0.2094
  16.000   1.5301   0.03587   0.02916   0.0223  0.0269  0.0654  -5.6426   0.0000   0.2089
  16.200   1.5314   0.03784   0.03119   0.0222  0.0270  0.0654  -5.7132   0.0000   0.2085
  16.400   1.5315   0.04001   0.03343   0.0220  0.0312  0.0725  -5.7817   0.0000   0.2082
  16.600   1.5300   0.04242   0.03590   0.0216  0.0312  0.0724  -5.8445   0.0000   0.2079
  16.800   1.5272   0.04508   0.03862   0.0210  0.0312  0.0724  -5.9005   0.0000   0.2077
  17.000   1.5228   0.04800   0.04162   0.0203  0.0313  0.0724  -5.9486   0.0000   0.2076
  17.200   1.5165   0.05123   0.04492   0.0193  0.0313  0.0723  -5.9868   0.0000   0.2077
  17.400   1.5082   0.05481   0.04858   0.0182  0.0313  0.0723  -6.0137   0.0000   0.2078
  17.600   1.4977   0.05877   0.05261   0.0169  0.0313  0.0723  -6.0292   0.0000   0.2080
  17.800   1.4849   0.06312   0.05706   0.0153  0.0313  0.0723  -6.0312   0.0000   0.2084
  18.000   1.4692   0.06791   0.06193   0.0136  0.0313  0.0723  -6.0174   0.0000   0.2089
  18.200   1.4511   0.07316   0.06728   0.0116  0.0313  0.0723  -5.9887   0.0000   0.2096
  18.400   1.4305   0.07885   0.07306   0.0094  0.0313  0.0723  -5.9447   0.0000   0.2105
  18.600   1.4075   0.08492   0.07923   0.0071  0.0313  0.0723  -5.8856   0.0000   0.2115
  18.800   1.3835   0.09127   0.08568   0.0046  0.0312  0.0724  -5.8174   0.0000   0.2127
  19.000   1.3592   0.09773   0.09224   0.0019  0.0312  0.0724  -5.7442   0.0000   0.2140
  19.200   1.3353   0.10419   0.09879  -0.0007  0.0312  0.0724  -5.6692   0.0000   0.2155
  19.400   1.3119   0.11072   0.10541  -0.0035  0.0312  0.0724  -5.5927   0.0000   0.2171
  19.600   1.2918   0.11679   0.11157  -0.0062  0.0312  0.0725  -5.5312   0.0000   0.2188
  19.800   1.2734   0.12262   0.11747  -0.0089  0.0312  0.0725  -5.4758   0.0000   0.2204
  20.000   1.2569   0.12825   0.12317  -0.0115  0.0311  0.0725  -5.4274   0.0000   0.2222
  20.200   1.2428   0.13357   0.12856  -0.0141  0.0311  0.0725  -5.3898   0.0000   0.2239
  20.400   1.2299   0.13875   0.13380  -0.0167  0.0311  0.0725  -5.3566   0.0000   0.2256
  20.600   1.2183   0.14373   0.13884  -0.0193  0.0311  0.0725  -5.3281   0.0000   0.2274
  20.800   1.2091   0.14833   0.14349  -0.0217  0.0311  0.0725  -5.3118   0.0000   0.2291
  21.000   1.2016   0.15268   0.14789  -0.0241  0.0311  0.0725  -5.3046   0.0000   0.2307
  21.200   1.1936   0.15720   0.15247  -0.0267  0.0311  0.0725  -5.2908   0.0000   0.2325
  21.400   1.1892   0.16109   0.15640  -0.0289  0.0311  0.0725  -5.2989   0.0000   0.2340
  21.600   1.1827   0.16544   0.16080  -0.0315  0.0311  0.0725  -5.2900   0.0000   0.2358
  21.800   1.1796   0.16914   0.16453  -0.0337  0.0311  0.0725  -5.3035   0.0000   0.2373
  22.000   1.1744   0.17330   0.16875  -0.0363  0.0311  0.0725  -5.2990   0.0000   0.2391
  22.200   1.1723   0.17682   0.17230  -0.0385  0.0311  0.0725  -5.3160   0.0000   0.2406
  22.400   1.1679   0.18084   0.17637  -0.0411  0.0311  0.0725  -5.3137   0.0000   0.2424
  22.600   1.1665   0.18428   0.17984  -0.0434  0.0357  0.0798  -5.3330   0.0000   0.2439
  22.800   1.1635   0.18812   0.18372  -0.0459  0.0357  0.0798  -5.3365   0.0000   0.2457
  23.000   1.1623   0.19158   0.18723  -0.0483  0.0357  0.0798  -5.3545   0.0000   0.2472
  23.200   1.1617   0.19495   0.19063  -0.0506  0.0357  0.0798  -5.3791   0.0000   0.2487
  23.400   1.1594   0.19873   0.19445  -0.0532  0.0357  0.0798  -5.3869   0.0000   0.2506
  23.600   1.1596   0.20197   0.19772  -0.0555  0.0357  0.0798  -5.4151   0.0000   0.2520
  23.800   1.1580   0.20565   0.20144  -0.0581  0.0357  0.0798  -5.4250   0.0000   0.2539
  24.000   1.1580   0.20897   0.20480  -0.0605  0.0357  0.0797  -5.4483   0.0000   0.2554
  24.200   1.1586   0.21215   0.20801  -0.0629  0.0357  0.0797  -5.4763   0.0000   0.2569
  24.400   1.1573   0.21586   0.21176  -0.0656  0.0357  0.0797  -5.4822   0.0000   0.2588
  24.600   1.1581   0.21903   0.21496  -0.0680  0.0358  0.0797  -5.5088   0.0000   0.2603
  24.800   1.1584   0.22235   0.21832  -0.0705  0.0406  0.0873  -5.5285   0.0000   0.2619
  25.000   1.1580   0.22584   0.22184  -0.0732  0.0406  0.0873  -5.5393   0.0000   0.2637


