xflr5 v6.47

 Calculated polar for: NACA 23015

 1 1 Reynolds number fixed          Mach number fixed         

 xtrf =   1.000 (top)        1.000 (bottom)
 Mach =   0.000     Re =     2.500 e 6     Ncrit =   1.000

  alpha     CL        CD       CDp       Cm    Top Xtr Bot Xtr   Cpmin    Chinge    XCp    
 ------- -------- --------- --------- -------- ------- ------- -------- --------- ---------
 -10.000  -0.9606   0.01273   0.00653  -0.0168  0.6354  0.0103  -6.3281   0.0000   0.2203
  -9.800  -0.9403   0.01256   0.00632  -0.0164  0.6213  0.0104  -6.1529   0.0000   0.2206
  -9.600  -0.9200   0.01239   0.00611  -0.0160  0.6077  0.0106  -5.9790   0.0000   0.2208
  -9.400  -0.8995   0.01223   0.00591  -0.0157  0.5943  0.0108  -5.8066   0.0000   0.2210
  -9.200  -0.8789   0.01208   0.00572  -0.0153  0.5811  0.0110  -5.6357   0.0000   0.2211
  -9.000  -0.8582   0.01193   0.00552  -0.0150  0.5680  0.0112  -5.4665   0.0000   0.2213
  -8.800  -0.8374   0.01178   0.00534  -0.0147  0.5546  0.0115  -5.2990   0.0000   0.2214
  -8.600  -0.8165   0.01164   0.00516  -0.0144  0.5413  0.0117  -5.1332   0.0000   0.2215
  -8.400  -0.7955   0.01151   0.00500  -0.0142  0.5286  0.0118  -4.9691   0.0000   0.2215
  -8.200  -0.7743   0.01138   0.00483  -0.0139  0.5164  0.0120  -4.8067   0.0000   0.2215
  -8.000  -0.7532   0.01126   0.00467  -0.0137  0.5044  0.0122  -4.6464   0.0000   0.2215
  -7.800  -0.7319   0.01113   0.00451  -0.0134  0.4926  0.0124  -4.4879   0.0000   0.2214
  -7.600  -0.7106   0.01101   0.00436  -0.0132  0.4808  0.0126  -4.3395   0.0000   0.2214
  -7.200  -0.6678   0.01079   0.00407  -0.0127  0.4553  0.0131  -4.0501   0.0000   0.2211
  -7.000  -0.6463   0.01069   0.00393  -0.0125  0.4429  0.0134  -3.9079   0.0000   0.2209
  -6.800  -0.6247   0.01060   0.00380  -0.0123  0.4307  0.0137  -3.7675   0.0000   0.2207
  -6.600  -0.6030   0.01051   0.00368  -0.0122  0.4182  0.0139  -3.6288   0.0000   0.2204
  -6.400  -0.5813   0.01042   0.00356  -0.0120  0.4052  0.0141  -3.4920   0.0000   0.2200
  -6.200  -0.5596   0.01035   0.00344  -0.0118  0.3910  0.0144  -3.3571   0.0000   0.2196
  -6.000  -0.5380   0.01030   0.00333  -0.0116  0.3713  0.0148  -3.2245   0.0000   0.2192
  -5.800  -0.5167   0.01029   0.00323  -0.0114  0.3379  0.0153  -3.0949   0.0000   0.2188
  -5.600  -0.4954   0.01029   0.00313  -0.0112  0.3052  0.0159  -2.9672   0.0000   0.2184
  -5.400  -0.4737   0.01026   0.00304  -0.0110  0.2816  0.0163  -2.8406   0.0000   0.2178
  -5.200  -0.4518   0.01022   0.00295  -0.0109  0.2670  0.0167  -2.7151   0.0000   0.2170
  -5.000  -0.4298   0.01016   0.00287  -0.0108  0.2574  0.0171  -2.5912   0.0000   0.2161
  -4.800  -0.4076   0.01010   0.00278  -0.0107  0.2498  0.0174  -2.4721   0.0000   0.2151
  -4.600  -0.3854   0.01004   0.00270  -0.0106  0.2430  0.0178  -2.3600   0.0000   0.2138
  -4.400  -0.3631   0.00998   0.00263  -0.0105  0.2377  0.0181  -2.2496   0.0000   0.2124
  -4.200  -0.3407   0.00993   0.00256  -0.0104  0.2317  0.0185  -2.1408   0.0000   0.2107
  -4.000  -0.3185   0.00987   0.00248  -0.0103  0.2258  0.0197  -2.0339   0.0000   0.2089
  -3.800  -0.2961   0.00980   0.00241  -0.0102  0.2234  0.0207  -1.9283   0.0000   0.2066
  -3.600  -0.2737   0.00975   0.00235  -0.0102  0.2189  0.0213  -1.8246   0.0000   0.2039
  -3.400  -0.2512   0.00971   0.00229  -0.0101  0.2140  0.0217  -1.7229   0.0000   0.2007
  -3.200  -0.2287   0.00967   0.00224  -0.0101  0.2103  0.0221  -1.6226   0.0000   0.1968
  -3.000  -0.2061   0.00962   0.00219  -0.0101  0.2075  0.0226  -1.5261   0.0000   0.1919
  -2.600  -0.1610   0.00953   0.00209  -0.0100  0.2016  0.0255  -1.3484   0.0000   0.1782
  -2.400  -0.1384   0.00950   0.00205  -0.0100  0.1977  0.0263  -1.2620   0.0000   0.1679
  -2.200  -0.1158   0.00947   0.00202  -0.0099  0.1948  0.0271  -1.1771   0.0000   0.1534
  -2.000  -0.0931   0.00943   0.00198  -0.0099  0.1934  0.0281  -1.0937   0.0000   0.1317
  -1.800  -0.0704   0.00940   0.00195  -0.0099  0.1912  0.0298  -1.0118   0.0000   0.0960
  -1.600  -0.0478   0.00937   0.00192  -0.0099  0.1878  0.0316  -0.9372   0.0000   0.0267
  -1.400  -0.0252   0.00936   0.00189  -0.0099  0.1844  0.0331  -0.8645   0.0000  -0.1671
  -1.200  -0.0024   0.00934   0.00187  -0.0099  0.1828  0.0342  -0.7931   0.0000  -4.0248
  -1.000   0.0203   0.00931   0.00185  -0.0099  0.1814  0.0364  -0.7229   0.0000   0.7516
  -0.800   0.0430   0.00929   0.00183  -0.0099  0.1791  0.0393  -0.7060   0.0000   0.4834
  -0.600   0.0658   0.00928   0.00182  -0.0099  0.1758  0.0406  -0.7343   0.0000   0.4004
  -0.400   0.0884   0.00927   0.00181  -0.0099  0.1730  0.0438  -0.7628   0.0000   0.3601
  -0.200   0.1112   0.00926   0.00180  -0.0099  0.1717  0.0470  -0.7915   0.0000   0.3362
   0.000   0.1340   0.00924   0.00180  -0.0100  0.1704  0.0499  -0.8204   0.0000   0.3205
   0.200   0.1567   0.00923   0.00180  -0.0100  0.1680  0.0546  -0.8506   0.0000   0.3093
   0.400   0.1793   0.00924   0.00180  -0.0100  0.1649  0.0584  -0.8811   0.0000   0.3009
   0.600   0.2019   0.00924   0.00181  -0.0100  0.1626  0.0643  -0.9118   0.0000   0.2943
   0.800   0.2247   0.00923   0.00181  -0.0100  0.1614  0.0711  -0.9427   0.0000   0.2892
   1.000   0.2473   0.00921   0.00182  -0.0100  0.1600  0.0811  -0.9738   0.0000   0.2849
   1.200   0.2695   0.00914   0.00183  -0.0100  0.1577  0.1122  -1.0058   0.0000   0.2811
   1.600   0.3080   0.00833   0.00173  -0.0091  0.1529  0.3752  -1.0656   0.0000   0.2732
   1.800   0.3307   0.00833   0.00175  -0.0091  0.1516  0.3852  -1.0990   0.0000   0.2711
   2.000   0.3536   0.00836   0.00178  -0.0092  0.1504  0.3914  -1.1327   0.0000   0.2693
   2.200   0.3764   0.00839   0.00182  -0.0092  0.1482  0.3982  -1.1676   0.0000   0.2677
   2.400   0.3990   0.00844   0.00186  -0.0093  0.1453  0.4047  -1.2031   0.0000   0.2663
   2.600   0.4217   0.00848   0.00191  -0.0093  0.1432  0.4120  -1.2388   0.0000   0.2650
   2.800   0.4445   0.00850   0.00195  -0.0094  0.1421  0.4193  -1.2749   0.0000   0.2638
   3.000   0.4672   0.00854   0.00199  -0.0094  0.1408  0.4268  -1.3112   0.0000   0.2627
   3.200   0.4898   0.00858   0.00204  -0.0095  0.1385  0.4351  -1.3487   0.0000   0.2617
   3.400   0.5123   0.00864   0.00210  -0.0095  0.1357  0.4424  -1.3869   0.0000   0.2607
   3.600   0.5348   0.00868   0.00216  -0.0095  0.1339  0.4516  -1.4253   0.0000   0.2599
   3.800   0.5574   0.00872   0.00221  -0.0096  0.1329  0.4592  -1.4641   0.0000   0.2591
   4.000   0.5800   0.00876   0.00227  -0.0096  0.1313  0.4681  -1.5031   0.0000   0.2583
   4.200   0.6023   0.00882   0.00234  -0.0096  0.1288  0.4775  -1.5437   0.0000   0.2575
   4.400   0.6246   0.00889   0.00241  -0.0096  0.1261  0.4858  -1.5847   0.0000   0.2568
   4.600   0.6470   0.00894   0.00248  -0.0096  0.1248  0.4958  -1.6261   0.0000   0.2561
   4.800   0.6694   0.00899   0.00255  -0.0097  0.1237  0.5054  -1.6678   0.0000   0.2555
   5.000   0.6917   0.00905   0.00263  -0.0097  0.1216  0.5146  -1.7102   0.0000   0.2549
   5.200   0.7138   0.00913   0.00271  -0.0097  0.1189  0.5249  -1.7539   0.0000   0.2542
   5.400   0.7359   0.00920   0.00280  -0.0096  0.1168  0.5357  -1.7979   0.0000   0.2536
   5.600   0.7581   0.00926   0.00288  -0.0097  0.1158  0.5455  -1.8424   0.0000   0.2530
   5.800   0.7802   0.00933   0.00297  -0.0097  0.1140  0.5559  -1.8871   0.0000   0.2525
   6.000   0.8021   0.00941   0.00307  -0.0096  0.1114  0.5677  -1.9337   0.0000   0.2519
   6.200   0.8238   0.00950   0.00318  -0.0096  0.1089  0.5788  -1.9805   0.0000   0.2513
   6.400   0.8458   0.00957   0.00327  -0.0096  0.1078  0.5898  -2.0280   0.0000   0.2508
   6.600   0.8677   0.00965   0.00338  -0.0095  0.1060  0.6010  -2.0757   0.0000   0.2502
   6.800   0.8893   0.00975   0.00350  -0.0095  0.1033  0.6131  -2.1254   0.0000   0.2497
   7.000   0.9107   0.00986   0.00362  -0.0094  0.1010  0.6263  -2.1753   0.0000   0.2491
   7.200   0.9324   0.00994   0.00373  -0.0093  0.0996  0.6390  -2.2259   0.0000   0.2486
   7.400   0.9539   0.01003   0.00386  -0.0092  0.0973  0.6515  -2.2774   0.0000   0.2480
   7.600   0.9750   0.01016   0.00400  -0.0091  0.0945  0.6644  -2.3303   0.0000   0.2474
   7.800   0.9962   0.01027   0.00414  -0.0090  0.0926  0.6777  -2.3836   0.0000   0.2469
   8.000   1.0175   0.01037   0.00427  -0.0089  0.0905  0.6915  -2.4379   0.0000   0.2464
   8.200   1.0383   0.01050   0.00443  -0.0088  0.0877  0.7055  -2.4939   0.0000   0.2458
   8.400   1.0590   0.01064   0.00459  -0.0086  0.0852  0.7200  -2.5501   0.0000   0.2452
   8.600   1.0799   0.01077   0.00475  -0.0084  0.0829  0.7349  -2.6081   0.0000   0.2446
   8.800   1.1002   0.01092   0.00493  -0.0082  0.0798  0.7501  -2.6673   0.0000   0.2440
   9.000   1.1205   0.01108   0.00511  -0.0080  0.0772  0.7656  -2.7270   0.0000   0.2434
   9.200   1.1407   0.01123   0.00529  -0.0077  0.0743  0.7812  -2.7897   0.0000   0.2428
   9.400   1.1603   0.01143   0.00551  -0.0074  0.0708  0.7966  -2.8522   0.0000   0.2421
   9.600   1.1801   0.01160   0.00571  -0.0071  0.0677  0.8123  -2.9182   0.0000   0.2415
   9.800   1.1991   0.01182   0.00596  -0.0067  0.0639  0.8283  -2.9849   0.0000   0.2407
  10.000   1.2181   0.01203   0.00620  -0.0063  0.0601  0.8443  -3.0544   0.0000   0.2400
  10.600   1.2725   0.01280   0.00703  -0.0046  0.0483  0.8916  -3.2809   0.0000   0.2375
  10.800   1.2898   0.01307   0.00734  -0.0039  0.0449  0.9067  -3.3632   0.0000   0.2366
  11.000   1.3062   0.01339   0.00767  -0.0030  0.0407  0.9215  -3.4461   0.0000   0.2356
  11.200   1.3229   0.01366   0.00797  -0.0022  0.0379  0.9353  -3.5355   0.0000   0.2347
  11.400   1.3384   0.01398   0.00831  -0.0012  0.0348  0.9486  -3.6229   0.0000   0.2336
  11.600   1.3542   0.01429   0.00863  -0.0003  0.0322  0.9610  -3.7167   0.0000   0.2325
  11.800   1.3704   0.01462   0.00897   0.0005  0.0299  0.9718  -3.8127   0.0000   0.2316
  12.000   1.3877   0.01498   0.00933   0.0011  0.0276  0.9804  -3.9139   0.0000   0.2309
  12.200   1.4054   0.01535   0.00970   0.0014  0.0255  0.9874  -4.0215   0.0000   0.2303
  12.400   1.4228   0.01569   0.01004   0.0019  0.0242  0.9939  -4.1293   0.0000   0.2297
  12.600   1.4374   0.01610   0.01045   0.0028  0.0224  1.0000  -4.2307   0.0000   0.2287
  13.000   1.4620   0.01687   0.01124   0.0055  0.0198  1.0000  -4.4313   0.0000   0.2262
  13.200   1.4745   0.01728   0.01165   0.0067  0.0190  1.0000  -4.5352   0.0000   0.2250
  13.400   1.4868   0.01772   0.01210   0.0079  0.0182  1.0000  -4.6397   0.0000   0.2239
  13.800   1.5097   0.01873   0.01313   0.0103  0.0160  1.0000  -4.8450   0.0000   0.2216
  14.000   1.5203   0.01931   0.01372   0.0115  0.0150  1.0000  -4.9469   0.0000   0.2205
  14.200   1.5320   0.01984   0.01427   0.0125  0.0147  1.0000  -5.0589   0.0000   0.2195
  14.400   1.5433   0.02040   0.01486   0.0135  0.0143  1.0000  -5.1704   0.0000   0.2185
  14.600   1.5541   0.02102   0.01550   0.0144  0.0139  1.0000  -5.2807   0.0000   0.2176
  14.800   1.5638   0.02173   0.01623   0.0154  0.0133  1.0000  -5.3880   0.0000   0.2166
  15.000   1.5717   0.02258   0.01711   0.0164  0.0124  1.0000  -5.4890   0.0000   0.2156
  15.200   1.5800   0.02346   0.01800   0.0173  0.0117  1.0000  -5.5918   0.0000   0.2146
  15.400   1.5882   0.02435   0.01892   0.0181  0.0113  1.0000  -5.6952   0.0000   0.2138
  15.600   1.5963   0.02530   0.01990   0.0188  0.0110  1.0000  -5.7984   0.0000   0.2129
  15.800   1.6040   0.02632   0.02096   0.0194  0.0107  1.0000  -5.9006   0.0000   0.2122
  16.000   1.6110   0.02743   0.02210   0.0200  0.0105  1.0000  -6.0030   0.0000   0.2114
  16.200   1.6171   0.02866   0.02336   0.0204  0.0102  1.0000  -6.1057   0.0000   0.2107
  16.400   1.6224   0.03001   0.02476   0.0208  0.0100  1.0000  -6.2049   0.0000   0.2100
  16.600   1.6268   0.03150   0.02628   0.0211  0.0097  1.0000  -6.3007   0.0000   0.2094
  16.800   1.6297   0.03316   0.02799   0.0213  0.0094  1.0000  -6.3899   0.0000   0.2088
  17.000   1.6321   0.03495   0.02982   0.0213  0.0091  1.0000  -6.4767   0.0000   0.2083
  17.200   1.6337   0.03688   0.03180   0.0213  0.0088  1.0000  -6.5595   0.0000   0.2079
  17.400   1.6339   0.03901   0.03399   0.0211  0.0086  1.0000  -6.6361   0.0000   0.2075
  17.600   1.6323   0.04139   0.03642   0.0207  0.0083  1.0000  -6.7035   0.0000   0.2071
  17.800   1.6293   0.04401   0.03910   0.0202  0.0080  1.0000  -6.7639   0.0000   0.2069
  18.000   1.6249   0.04688   0.04204   0.0195  0.0078  1.0000  -6.8164   0.0000   0.2067
  18.200   1.6188   0.05002   0.04525   0.0187  0.0076  1.0000  -6.8597   0.0000   0.2066
  18.400   1.6111   0.05341   0.04871   0.0177  0.0075  1.0000  -6.8944   0.0000   0.2066
  18.600   1.6017   0.05711   0.05249   0.0166  0.0074  1.0000  -6.9188   0.0000   0.2067
  18.800   1.5901   0.06118   0.05664   0.0152  0.0073  1.0000  -6.9306   0.0000   0.2069
  19.000   1.5758   0.06564   0.06119   0.0137  0.0073  1.0000  -6.9264   0.0000   0.2072
  19.200   1.5590   0.07052   0.06617   0.0119  0.0072  1.0000  -6.9075   0.0000   0.2076
  19.400   1.5399   0.07583   0.07158   0.0100  0.0072  1.0000  -6.8737   0.0000   0.2082
  19.600   1.5181   0.08154   0.07739   0.0078  0.0072  1.0000  -6.8230   0.0000   0.2090
  19.800   1.4944   0.08762   0.08358   0.0055  0.0071  1.0000  -6.7587   0.0000   0.2099
  20.000   1.4696   0.09400   0.09007   0.0029  0.0071  1.0000  -6.6841   0.0000   0.2110
  20.200   1.4442   0.10047   0.09664   0.0003  0.0071  1.0000  -6.6033   0.0000   0.2122
  20.400   1.4197   0.10692   0.10320  -0.0025  0.0071  1.0000  -6.5232   0.0000   0.2136
  20.600   1.3953   0.11351   0.10989  -0.0054  0.0071  1.0000  -6.4387   0.0000   0.2152
  20.800   1.3737   0.11966   0.11613  -0.0081  0.0071  1.0000  -6.3678   0.0000   0.2167
  21.000   1.3545   0.12553   0.12209  -0.0109  0.0071  1.0000  -6.3069   0.0000   0.2183
  21.200   1.3373   0.13120   0.12784  -0.0137  0.0070  1.0000  -6.2538   0.0000   0.2200
  21.400   1.3219   0.13664   0.13335  -0.0164  0.0070  1.0000  -6.2087   0.0000   0.2217
  21.600   1.3080   0.14187   0.13865  -0.0192  0.0069  1.0000  -6.1694   0.0000   0.2234
  21.800   1.2958   0.14684   0.14368  -0.0218  0.0069  1.0000  -6.1384   0.0000   0.2251
  22.000   1.2878   0.15113   0.14802  -0.0242  0.0068  1.0000  -6.1326   0.0000   0.2265
  22.200   1.2782   0.15579   0.15273  -0.0269  0.0067  1.0000  -6.1124   0.0000   0.2282
  22.400   1.2711   0.16007   0.15707  -0.0294  0.0067  1.0000  -6.1076   0.0000   0.2298
  22.600   1.2656   0.16407   0.16111  -0.0319  0.0066  1.0000  -6.1153   0.0000   0.2313
  22.800   1.2597   0.16818   0.16527  -0.0344  0.0066  1.0000  -6.1178   0.0000   0.2329
  23.000   1.2557   0.17196   0.16909  -0.0368  0.0065  1.0000  -6.1326   0.0000   0.2343
  23.200   1.2517   0.17573   0.17290  -0.0392  0.0065  1.0000  -6.1458   0.0000   0.2358
  23.400   1.2479   0.17947   0.17668  -0.0417  0.0064  1.0000  -6.1584   0.0000   0.2374
  23.600   1.2462   0.18282   0.18007  -0.0440  0.0063  1.0000  -6.1868   0.0000   0.2387
  23.800   1.2416   0.18681   0.18410  -0.0467  0.0062  1.0000  -6.1884   0.0000   0.2405
  24.000   1.2403   0.19017   0.18749  -0.0491  0.0061  1.0000  -6.2170   0.0000   0.2418
  24.200   1.2365   0.19407   0.19143  -0.0518  0.0059  1.0000  -6.2209   0.0000   0.2436
  24.400   1.2349   0.19753   0.19493  -0.0543  0.0057  1.0000  -6.2432   0.0000   0.2452
  24.600   1.2332   0.20107   0.19849  -0.0569  0.0055  1.0000  -6.2616   0.0000   0.2467
  24.800   1.2298   0.20494   0.20239  -0.0597  0.0053  1.0000  -6.2635   0.0000   0.2486
  25.000   1.2290   0.20832   0.20580  -0.0623  0.0050  1.0000  -6.2872   0.0000   0.2502


