xflr5 v6.47

 Calculated polar for: NACA 23015

 1 1 Reynolds number fixed          Mach number fixed         

 xtrf =   1.000 (top)        1.000 (bottom)
 Mach =   0.000     Re =     0.900 e 6     Ncrit =   1.000

  alpha     CL        CD       CDp       Cm    Top Xtr Bot Xtr   Cpmin    Chinge    XCp    
 ------- -------- --------- --------- -------- ------- ------- -------- --------- ---------
 -10.000  -0.9223   0.01567   0.00898  -0.0225  0.7958  0.0125  -6.1092   0.0000   0.2132
  -9.800  -0.9038   0.01543   0.00867  -0.0219  0.7783  0.0127  -5.9451   0.0000   0.2137
  -9.600  -0.8850   0.01521   0.00838  -0.0213  0.7611  0.0129  -5.7818   0.0000   0.2140
  -9.400  -0.8660   0.01500   0.00809  -0.0207  0.7442  0.0131  -5.6194   0.0000   0.2144
  -9.200  -0.8468   0.01479   0.00781  -0.0201  0.7276  0.0133  -5.4580   0.0000   0.2147
  -9.000  -0.8274   0.01458   0.00754  -0.0196  0.7112  0.0135  -5.2978   0.0000   0.2149
  -8.800  -0.8079   0.01439   0.00728  -0.0191  0.6952  0.0137  -5.1388   0.0000   0.2151
  -8.600  -0.7881   0.01420   0.00703  -0.0187  0.6793  0.0139  -4.9811   0.0000   0.2153
  -8.400  -0.7682   0.01402   0.00679  -0.0182  0.6638  0.0141  -4.8247   0.0000   0.2154
  -8.200  -0.7482   0.01385   0.00655  -0.0178  0.6486  0.0143  -4.6698   0.0000   0.2155
  -8.000  -0.7281   0.01368   0.00632  -0.0174  0.6337  0.0145  -4.5163   0.0000   0.2155
  -7.800  -0.7078   0.01352   0.00611  -0.0170  0.6190  0.0147  -4.3687   0.0000   0.2155
  -7.600  -0.6874   0.01336   0.00589  -0.0167  0.6046  0.0150  -4.2273   0.0000   0.2155
  -7.400  -0.6671   0.01320   0.00568  -0.0163  0.5903  0.0154  -4.0873   0.0000   0.2155
  -7.200  -0.6466   0.01305   0.00548  -0.0159  0.5762  0.0159  -3.9486   0.0000   0.2154
  -7.000  -0.6260   0.01290   0.00529  -0.0156  0.5623  0.0164  -3.8115   0.0000   0.2152
  -6.800  -0.6052   0.01277   0.00510  -0.0153  0.5486  0.0168  -3.6761   0.0000   0.2150
  -6.600  -0.5843   0.01264   0.00493  -0.0150  0.5350  0.0171  -3.5424   0.0000   0.2147
  -6.400  -0.5634   0.01252   0.00476  -0.0147  0.5213  0.0174  -3.4103   0.0000   0.2144
  -6.200  -0.5423   0.01241   0.00459  -0.0144  0.5077  0.0177  -3.2798   0.0000   0.2140
  -6.000  -0.5212   0.01231   0.00443  -0.0142  0.4940  0.0180  -3.1509   0.0000   0.2135
  -5.800  -0.5000   0.01221   0.00428  -0.0139  0.4803  0.0183  -3.0236   0.0000   0.2129
  -5.600  -0.4788   0.01211   0.00414  -0.0137  0.4663  0.0187  -2.8981   0.0000   0.2123
  -5.400  -0.4576   0.01201   0.00399  -0.0134  0.4519  0.0194  -2.7743   0.0000   0.2116
  -5.200  -0.4364   0.01193   0.00386  -0.0132  0.4366  0.0202  -2.6522   0.0000   0.2107
  -5.000  -0.4152   0.01187   0.00373  -0.0129  0.4176  0.0210  -2.5323   0.0000   0.2098
  -4.800  -0.3943   0.01187   0.00362  -0.0126  0.3867  0.0216  -2.4219   0.0000   0.2089
  -4.600  -0.3735   0.01190   0.00352  -0.0124  0.3505  0.0221  -2.3152   0.0000   0.2080
  -4.400  -0.3526   0.01191   0.00342  -0.0121  0.3205  0.0225  -2.2095   0.0000   0.2068
  -4.200  -0.3312   0.01187   0.00333  -0.0119  0.3023  0.0231  -2.1043   0.0000   0.2052
  -4.000  -0.3095   0.01181   0.00323  -0.0117  0.2920  0.0239  -2.0001   0.0000   0.2033
  -3.800  -0.2878   0.01175   0.00314  -0.0115  0.2832  0.0250  -1.8974   0.0000   0.2010
  -3.600  -0.2661   0.01170   0.00306  -0.0114  0.2733  0.0261  -1.7964   0.0000   0.1982
  -3.400  -0.2442   0.01164   0.00297  -0.0112  0.2662  0.0271  -1.6969   0.0000   0.1949
  -3.200  -0.2224   0.01159   0.00290  -0.0111  0.2589  0.0280  -1.5991   0.0000   0.1910
  -3.000  -0.2004   0.01155   0.00283  -0.0109  0.2513  0.0289  -1.5068   0.0000   0.1860
  -2.800  -0.1785   0.01151   0.00276  -0.0108  0.2447  0.0302  -1.4192   0.0000   0.1798
  -2.600  -0.1565   0.01146   0.00269  -0.0107  0.2397  0.0318  -1.3329   0.0000   0.1718
  -2.400  -0.1345   0.01141   0.00264  -0.0106  0.2348  0.0335  -1.2481   0.0000   0.1610
  -2.200  -0.1124   0.01138   0.00259  -0.0105  0.2290  0.0348  -1.1649   0.0000   0.1459
  -2.000  -0.0903   0.01135   0.00254  -0.0104  0.2241  0.0362  -1.0832   0.0000   0.1234
  -1.800  -0.0681   0.01131   0.00250  -0.0103  0.2206  0.0386  -1.0035   0.0000   0.0860
  -1.600  -0.0459   0.01128   0.00245  -0.0102  0.2171  0.0409  -0.9306   0.0000   0.0123
  -1.400  -0.0238   0.01125   0.00242  -0.0101  0.2134  0.0428  -0.8590   0.0000  -0.1988
  -1.200  -0.0016   0.01123   0.00239  -0.0100  0.2093  0.0458  -0.7888   0.0000  -6.2894
  -1.000   0.0206   0.01121   0.00236  -0.0099  0.2059  0.0491  -0.7198   0.0000   0.7453
  -0.800   0.0428   0.01118   0.00234  -0.0098  0.2038  0.0522  -0.7057   0.0000   0.4824
  -0.600   0.0651   0.01116   0.00232  -0.0098  0.2012  0.0566  -0.7336   0.0000   0.3994
  -0.400   0.0873   0.01114   0.00231  -0.0097  0.1978  0.0613  -0.7617   0.0000   0.3587
  -0.200   0.1094   0.01113   0.00230  -0.0096  0.1945  0.0670  -0.7899   0.0000   0.3344
   0.000   0.1316   0.01111   0.00229  -0.0095  0.1924  0.0744  -0.8183   0.0000   0.3184
   0.200   0.1538   0.01108   0.00228  -0.0095  0.1906  0.0843  -0.8479   0.0000   0.3070
   0.400   0.1756   0.01101   0.00227  -0.0093  0.1880  0.1073  -0.8776   0.0000   0.2982
   0.600   0.1908   0.01014   0.00209  -0.0084  0.1854  0.3337  -0.9020   0.0000   0.2886
   0.800   0.2113   0.00994   0.00208  -0.0081  0.1828  0.3913  -0.9311   0.0000   0.2827
   1.000   0.2327   0.00984   0.00209  -0.0079  0.1808  0.4287  -0.9611   0.0000   0.2781
   1.200   0.2550   0.00985   0.00212  -0.0079  0.1791  0.4392  -0.9927   0.0000   0.2748
   1.400   0.2774   0.00987   0.00215  -0.0078  0.1768  0.4470  -1.0252   0.0000   0.2720
   1.600   0.2998   0.00991   0.00218  -0.0078  0.1741  0.4553  -1.0580   0.0000   0.2696
   1.800   0.3221   0.00994   0.00222  -0.0078  0.1718  0.4637  -1.0909   0.0000   0.2676
   2.000   0.3445   0.00998   0.00226  -0.0078  0.1698  0.4724  -1.1241   0.0000   0.2658
   2.200   0.3668   0.01001   0.00231  -0.0077  0.1682  0.4816  -1.1581   0.0000   0.2642
   2.400   0.3891   0.01004   0.00236  -0.0077  0.1660  0.4908  -1.1931   0.0000   0.2627
   2.600   0.4112   0.01009   0.00241  -0.0076  0.1635  0.5003  -1.2283   0.0000   0.2614
   2.800   0.4334   0.01013   0.00247  -0.0076  0.1613  0.5101  -1.2638   0.0000   0.2602
   3.000   0.4556   0.01017   0.00253  -0.0076  0.1595  0.5202  -1.2995   0.0000   0.2591
   3.200   0.4778   0.01022   0.00259  -0.0075  0.1579  0.5302  -1.3360   0.0000   0.2581
   3.400   0.4999   0.01027   0.00266  -0.0075  0.1557  0.5410  -1.3736   0.0000   0.2571
   3.600   0.5218   0.01033   0.00273  -0.0074  0.1534  0.5517  -1.4114   0.0000   0.2562
   3.800   0.5439   0.01038   0.00281  -0.0074  0.1513  0.5625  -1.4495   0.0000   0.2553
   4.000   0.5659   0.01043   0.00289  -0.0073  0.1496  0.5738  -1.4878   0.0000   0.2545
   4.200   0.5878   0.01049   0.00297  -0.0072  0.1480  0.5853  -1.5273   0.0000   0.2538
   4.400   0.6096   0.01055   0.00306  -0.0072  0.1459  0.5970  -1.5676   0.0000   0.2530
   4.600   0.6313   0.01062   0.00315  -0.0071  0.1437  0.6090  -1.6081   0.0000   0.2523
   4.800   0.6531   0.01069   0.00325  -0.0070  0.1417  0.6212  -1.6489   0.0000   0.2516
   5.000   0.6749   0.01075   0.00335  -0.0069  0.1401  0.6336  -1.6900   0.0000   0.2510
   5.200   0.6965   0.01082   0.00345  -0.0068  0.1384  0.6463  -1.7330   0.0000   0.2503
   5.400   0.7180   0.01091   0.00356  -0.0067  0.1361  0.6594  -1.7761   0.0000   0.2497
   5.600   0.7394   0.01099   0.00368  -0.0066  0.1340  0.6727  -1.8195   0.0000   0.2491
   5.800   0.7608   0.01107   0.00380  -0.0064  0.1322  0.6863  -1.8632   0.0000   0.2484
   6.000   0.7822   0.01115   0.00392  -0.0063  0.1307  0.7000  -1.9083   0.0000   0.2478
   6.200   0.8034   0.01124   0.00405  -0.0061  0.1286  0.7141  -1.9543   0.0000   0.2472
   6.400   0.8243   0.01134   0.00419  -0.0059  0.1263  0.7285  -2.0003   0.0000   0.2466
   6.600   0.8454   0.01144   0.00433  -0.0058  0.1244  0.7430  -2.0467   0.0000   0.2460
   6.800   0.8664   0.01153   0.00447  -0.0056  0.1229  0.7577  -2.0946   0.0000   0.2454
   7.000   0.8872   0.01163   0.00462  -0.0054  0.1209  0.7725  -2.1435   0.0000   0.2447
   7.200   0.9077   0.01175   0.00478  -0.0051  0.1185  0.7875  -2.1923   0.0000   0.2441
   7.400   0.9282   0.01187   0.00494  -0.0048  0.1165  0.8027  -2.2413   0.0000   0.2434
   7.600   0.9486   0.01198   0.00511  -0.0045  0.1150  0.8178  -2.2929   0.0000   0.2428
   7.800   0.9688   0.01210   0.00528  -0.0042  0.1129  0.8328  -2.3445   0.0000   0.2421
   8.000   0.9887   0.01224   0.00546  -0.0039  0.1104  0.8478  -2.3961   0.0000   0.2414
   8.200   1.0085   0.01239   0.00565  -0.0035  0.1084  0.8624  -2.4496   0.0000   0.2407
   8.400   1.0282   0.01253   0.00585  -0.0031  0.1067  0.8767  -2.5041   0.0000   0.2400
   8.800   1.0667   0.01287   0.00626  -0.0021  0.1018  0.9036  -2.6151   0.0000   0.2384
   9.000   1.0857   0.01305   0.00648  -0.0016  0.0999  0.9161  -2.6723   0.0000   0.2376
   9.200   1.1048   0.01324   0.00670  -0.0011  0.0976  0.9278  -2.7313   0.0000   0.2369
   9.400   1.1239   0.01346   0.00694  -0.0006  0.0949  0.9385  -2.7921   0.0000   0.2362
   9.600   1.1434   0.01370   0.00719  -0.0003  0.0925  0.9481  -2.8554   0.0000   0.2356
   9.800   1.1635   0.01393   0.00744  -0.0001  0.0900  0.9566  -2.9218   0.0000   0.2351
  10.000   1.1835   0.01421   0.00772   0.0000  0.0868  0.9642  -2.9914   0.0000   0.2347
  10.200   1.2041   0.01449   0.00800   0.0000  0.0842  0.9706  -3.0648   0.0000   0.2344
  10.400   1.2244   0.01479   0.00830   0.0000  0.0808  0.9764  -3.1415   0.0000   0.2341
  10.600   1.2440   0.01512   0.00862   0.0002  0.0777  0.9818  -3.2210   0.0000   0.2337
  10.800   1.2633   0.01545   0.00895   0.0003  0.0741  0.9871  -3.3038   0.0000   0.2333
  11.000   1.2819   0.01583   0.00932   0.0005  0.0705  0.9921  -3.3905   0.0000   0.2328
  11.200   1.3000   0.01620   0.00969   0.0009  0.0665  0.9972  -3.4792   0.0000   0.2323
  11.400   1.3154   0.01660   0.01008   0.0017  0.0629  1.0000  -3.5653   0.0000   0.2313
  11.600   1.3277   0.01700   0.01047   0.0031  0.0591  1.0000  -3.6463   0.0000   0.2299
  11.800   1.3389   0.01742   0.01089   0.0047  0.0557  1.0000  -3.7285   0.0000   0.2284
  12.000   1.3496   0.01788   0.01135   0.0063  0.0522  1.0000  -3.8101   0.0000   0.2269
  12.200   1.3608   0.01836   0.01183   0.0078  0.0490  1.0000  -3.8939   0.0000   0.2255
  12.400   1.3714   0.01889   0.01236   0.0092  0.0459  1.0000  -3.9813   0.0000   0.2242
  12.600   1.3823   0.01942   0.01290   0.0105  0.0430  1.0000  -4.0701   0.0000   0.2229
  12.800   1.3924   0.02003   0.01351   0.0119  0.0402  1.0000  -4.1570   0.0000   0.2217
  13.000   1.4028   0.02063   0.01413   0.0131  0.0378  1.0000  -4.2456   0.0000   0.2205
  13.200   1.4122   0.02131   0.01483   0.0143  0.0355  1.0000  -4.3347   0.0000   0.2193
  13.400   1.4220   0.02200   0.01553   0.0154  0.0335  1.0000  -4.4278   0.0000   0.2182
  13.600   1.4308   0.02277   0.01633   0.0165  0.0315  1.0000  -4.5185   0.0000   0.2171
  13.800   1.4394   0.02358   0.01716   0.0176  0.0299  1.0000  -4.6088   0.0000   0.2161
  14.000   1.4479   0.02443   0.01805   0.0185  0.0283  1.0000  -4.6994   0.0000   0.2151
  14.200   1.4556   0.02538   0.01903   0.0194  0.0270  1.0000  -4.7873   0.0000   0.2141
  14.400   1.4627   0.02641   0.02009   0.0202  0.0257  1.0000  -4.8737   0.0000   0.2132
  14.600   1.4694   0.02751   0.02123   0.0209  0.0244  1.0000  -4.9628   0.0000   0.2124
  14.800   1.4751   0.02874   0.02250   0.0215  0.0231  1.0000  -5.0502   0.0000   0.2116
  15.000   1.4800   0.03008   0.02388   0.0220  0.0222  1.0000  -5.1348   0.0000   0.2109
  15.200   1.4857   0.03143   0.02528   0.0224  0.0216  1.0000  -5.2222   0.0000   0.2102
  15.400   1.4903   0.03293   0.02683   0.0226  0.0209  1.0000  -5.3057   0.0000   0.2096
  15.600   1.4934   0.03461   0.02856   0.0228  0.0201  1.0000  -5.3835   0.0000   0.2091
  15.800   1.4950   0.03652   0.03053   0.0228  0.0192  1.0000  -5.4545   0.0000   0.2086
  16.000   1.4951   0.03866   0.03273   0.0226  0.0185  1.0000  -5.5191   0.0000   0.2082
  16.200   1.4951   0.04088   0.03502   0.0223  0.0178  1.0000  -5.5829   0.0000   0.2079
  16.400   1.4939   0.04330   0.03750   0.0219  0.0173  1.0000  -5.6410   0.0000   0.2077
  16.600   1.4916   0.04593   0.04020   0.0213  0.0168  1.0000  -5.6934   0.0000   0.2076
  16.800   1.4880   0.04878   0.04314   0.0205  0.0165  1.0000  -5.7397   0.0000   0.2075
  17.000   1.4827   0.05190   0.04634   0.0196  0.0162  1.0000  -5.7775   0.0000   0.2075
  17.200   1.4756   0.05533   0.04986   0.0185  0.0159  1.0000  -5.8095   0.0000   0.2077
  17.400   1.4665   0.05911   0.05373   0.0173  0.0157  1.0000  -5.8305   0.0000   0.2079
  17.600   1.4550   0.06328   0.05800   0.0158  0.0155  1.0000  -5.8385   0.0000   0.2083
  17.800   1.4411   0.06784   0.06265   0.0141  0.0153  1.0000  -5.8327   0.0000   0.2088
  18.000   1.4252   0.07278   0.06771   0.0123  0.0152  1.0000  -5.8144   0.0000   0.2095
  18.200   1.4072   0.07809   0.07313   0.0102  0.0150  1.0000  -5.7838   0.0000   0.2103
  18.400   1.3878   0.08366   0.07881   0.0080  0.0150  1.0000  -5.7426   0.0000   0.2112
  18.600   1.3674   0.08948   0.08474   0.0057  0.0149  1.0000  -5.6934   0.0000   0.2123
  18.800   1.3461   0.09550   0.09088   0.0033  0.0148  1.0000  -5.6367   0.0000   0.2135
  19.000   1.3249   0.10156   0.09705   0.0007  0.0148  1.0000  -5.5768   0.0000   0.2148
  19.200   1.3051   0.10750   0.10309  -0.0018  0.0147  1.0000  -5.5211   0.0000   0.2163
  19.400   1.2862   0.11338   0.10906  -0.0044  0.0146  1.0000  -5.4674   0.0000   0.2178
  19.600   1.2687   0.11906   0.11484  -0.0069  0.0144  1.0000  -5.4182   0.0000   0.2194
  19.800   1.2532   0.12450   0.12036  -0.0094  0.0143  1.0000  -5.3771   0.0000   0.2210
  20.000   1.2395   0.12971   0.12565  -0.0119  0.0141  1.0000  -5.3437   0.0000   0.2226
  20.200   1.2276   0.13469   0.13069  -0.0144  0.0138  1.0000  -5.3181   0.0000   0.2242
  20.400   1.2175   0.13941   0.13548  -0.0168  0.0135  1.0000  -5.3005   0.0000   0.2258
  20.600   1.2074   0.14414   0.14027  -0.0193  0.0132  1.0000  -5.2807   0.0000   0.2275
  20.800   1.1989   0.14865   0.14483  -0.0217  0.0129  1.0000  -5.2683   0.0000   0.2292
  21.000   1.1922   0.15289   0.14913  -0.0240  0.0126  1.0000  -5.2649   0.0000   0.2308
  21.200   1.1852   0.15725   0.15353  -0.0265  0.0123  1.0000  -5.2572   0.0000   0.2325
  21.400   1.1806   0.16118   0.15751  -0.0288  0.0120  1.0000  -5.2636   0.0000   0.2340
  21.600   1.1759   0.16520   0.16158  -0.0312  0.0118  1.0000  -5.2662   0.0000   0.2357
  21.800   1.1736   0.16874   0.16516  -0.0334  0.0116  1.0000  -5.2856   0.0000   0.2371
  22.000   1.1704   0.17249   0.16896  -0.0357  0.0114  1.0000  -5.2958   0.0000   0.2386
  22.200   1.1687   0.17595   0.17246  -0.0379  0.0113  1.0000  -5.3157   0.0000   0.2401
  22.400   1.1668   0.17945   0.17600  -0.0402  0.0111  1.0000  -5.3330   0.0000   0.2415
  22.600   1.1652   0.18295   0.17954  -0.0425  0.0109  1.0000  -5.3502   0.0000   0.2431
  22.800   1.1648   0.18620   0.18283  -0.0446  0.0107  1.0000  -5.3761   0.0000   0.2444
  23.000   1.1632   0.18975   0.18642  -0.0470  0.0105  1.0000  -5.3897   0.0000   0.2460
  23.200   1.1628   0.19305   0.18976  -0.0493  0.0103  1.0000  -5.4127   0.0000   0.2475
  23.400   1.1624   0.19638   0.19311  -0.0517  0.0100  1.0000  -5.4339   0.0000   0.2490
  23.600   1.1612   0.19991   0.19668  -0.0542  0.0097  1.0000  -5.4500   0.0000   0.2507
  23.800   1.1611   0.20322   0.20002  -0.0565  0.0094  1.0000  -5.4755   0.0000   0.2522
  24.000   1.1604   0.20668   0.20351  -0.0591  0.0091  1.0000  -5.4936   0.0000   0.2539
  24.200   1.1609   0.20986   0.20673  -0.0614  0.0088  1.0000  -5.5218   0.0000   0.2554
  24.400   1.1620   0.21294   0.20983  -0.0637  0.0086  1.0000  -5.5542   0.0000   0.2568
  24.600   1.1623   0.21619   0.21312  -0.0662  0.0084  1.0000  -5.5778   0.0000   0.2583
  24.800   1.1632   0.21932   0.21628  -0.0686  0.0081  1.0000  -5.6058   0.0000   0.2598
  25.000   1.1648   0.22231   0.21930  -0.0709  0.0080  1.0000  -5.6391   0.0000   0.2612


