xflr5 v6.47

 Calculated polar for: NACA 23015

 1 1 Reynolds number fixed          Mach number fixed         

 xtrf =   1.000 (top)        1.000 (bottom)
 Mach =   0.000     Re =     0.400 e 6     Ncrit =   1.000

  alpha     CL        CD       CDp       Cm    Top Xtr Bot Xtr   Cpmin    Chinge    XCp    
 ------- -------- --------- --------- -------- ------- ------- -------- --------- ---------
 -10.000  -0.8759   0.01959   0.01240  -0.0300  0.9175  0.0144  -5.8298   0.0000   0.2031
  -9.800  -0.8577   0.01920   0.01194  -0.0294  0.9033  0.0146  -5.6742   0.0000   0.2033
  -9.600  -0.8402   0.01884   0.01151  -0.0286  0.8881  0.0148  -5.5221   0.0000   0.2037
  -9.400  -0.8229   0.01849   0.01109  -0.0278  0.8721  0.0151  -5.3721   0.0000   0.2042
  -9.200  -0.8056   0.01817   0.01069  -0.0269  0.8555  0.0154  -5.2225   0.0000   0.2048
  -9.000  -0.7882   0.01787   0.01031  -0.0260  0.8388  0.0157  -5.0741   0.0000   0.2053
  -8.800  -0.7705   0.01758   0.00995  -0.0252  0.8218  0.0161  -4.9266   0.0000   0.2058
  -8.600  -0.7527   0.01730   0.00959  -0.0244  0.8046  0.0165  -4.7803   0.0000   0.2063
  -8.400  -0.7345   0.01704   0.00923  -0.0237  0.7875  0.0169  -4.6351   0.0000   0.2067
  -8.200  -0.7162   0.01679   0.00890  -0.0230  0.7706  0.0172  -4.4908   0.0000   0.2070
  -8.000  -0.6976   0.01655   0.00857  -0.0223  0.7537  0.0174  -4.3475   0.0000   0.2073
  -7.800  -0.6788   0.01633   0.00825  -0.0216  0.7370  0.0177  -4.2136   0.0000   0.2075
  -7.600  -0.6598   0.01611   0.00795  -0.0210  0.7204  0.0180  -4.0815   0.0000   0.2076
  -7.400  -0.6406   0.01590   0.00765  -0.0205  0.7041  0.0182  -3.9503   0.0000   0.2077
  -7.200  -0.6213   0.01570   0.00737  -0.0199  0.6880  0.0185  -3.8200   0.0000   0.2078
  -7.000  -0.6019   0.01550   0.00710  -0.0194  0.6722  0.0189  -3.6901   0.0000   0.2077
  -6.800  -0.5823   0.01531   0.00685  -0.0189  0.6566  0.0195  -3.5613   0.0000   0.2076
  -6.600  -0.5626   0.01513   0.00660  -0.0184  0.6412  0.0202  -3.4339   0.0000   0.2075
  -6.400  -0.5428   0.01496   0.00635  -0.0179  0.6259  0.0208  -3.3080   0.0000   0.2072
  -6.200  -0.5228   0.01480   0.00612  -0.0175  0.6107  0.0214  -3.1835   0.0000   0.2069
  -6.000  -0.5026   0.01465   0.00590  -0.0170  0.5958  0.0219  -3.0606   0.0000   0.2065
  -5.800  -0.4824   0.01450   0.00568  -0.0166  0.5810  0.0223  -2.9390   0.0000   0.2060
  -5.600  -0.4621   0.01436   0.00548  -0.0162  0.5663  0.0227  -2.8187   0.0000   0.2054
  -5.400  -0.4417   0.01423   0.00528  -0.0159  0.5516  0.0233  -2.6998   0.0000   0.2047
  -5.200  -0.4212   0.01410   0.00510  -0.0155  0.5368  0.0241  -2.5823   0.0000   0.2039
  -5.000  -0.4006   0.01399   0.00492  -0.0151  0.5219  0.0251  -2.4684   0.0000   0.2030
  -4.800  -0.3800   0.01388   0.00475  -0.0148  0.5068  0.0260  -2.3622   0.0000   0.2018
  -4.600  -0.3593   0.01378   0.00459  -0.0145  0.4914  0.0268  -2.2574   0.0000   0.2006
  -4.400  -0.3386   0.01369   0.00443  -0.0141  0.4751  0.0277  -2.1540   0.0000   0.1991
  -4.200  -0.3179   0.01362   0.00428  -0.0138  0.4571  0.0284  -2.0523   0.0000   0.1974
  -4.000  -0.2974   0.01359   0.00415  -0.0134  0.4313  0.0295  -1.9527   0.0000   0.1956
  -3.800  -0.2771   0.01361   0.00403  -0.0131  0.3994  0.0307  -1.8551   0.0000   0.1936
  -3.600  -0.2568   0.01361   0.00391  -0.0127  0.3682  0.0320  -1.7588   0.0000   0.1912
  -3.400  -0.2361   0.01361   0.00381  -0.0124  0.3433  0.0334  -1.6635   0.0000   0.1881
  -3.200  -0.2151   0.01357   0.00370  -0.0121  0.3281  0.0347  -1.5689   0.0000   0.1841
  -3.000  -0.1938   0.01352   0.00360  -0.0119  0.3164  0.0361  -1.4815   0.0000   0.1790
  -2.800  -0.1726   0.01347   0.00351  -0.0117  0.3054  0.0380  -1.3963   0.0000   0.1726
  -2.600  -0.1512   0.01342   0.00342  -0.0114  0.2957  0.0400  -1.3125   0.0000   0.1642
  -2.400  -0.1298   0.01338   0.00334  -0.0112  0.2863  0.0419  -1.2300   0.0000   0.1529
  -2.200  -0.1084   0.01334   0.00327  -0.0110  0.2777  0.0443  -1.1488   0.0000   0.1371
  -2.000  -0.0869   0.01330   0.00321  -0.0108  0.2698  0.0469  -1.0690   0.0000   0.1133
  -1.800  -0.0655   0.01327   0.00315  -0.0106  0.2620  0.0499  -0.9928   0.0000   0.0739
  -1.600  -0.0439   0.01324   0.00309  -0.0104  0.2552  0.0532  -0.9215   0.0000  -0.0048
  -1.400  -0.0223   0.01321   0.00304  -0.0102  0.2493  0.0571  -0.8515   0.0000  -0.2358
  -1.200  -0.0007   0.01318   0.00300  -0.0101  0.2434  0.0617  -0.7826   0.0000  -14.1565
  -1.000   0.0208   0.01316   0.00296  -0.0099  0.2376  0.0670  -0.7151   0.0000   0.7385
  -0.800   0.0424   0.01312   0.00293  -0.0097  0.2327  0.0739  -0.7046   0.0000   0.4820
  -0.600   0.0640   0.01309   0.00289  -0.0095  0.2285  0.0828  -0.7319   0.0000   0.3986
  -0.400   0.0854   0.01304   0.00287  -0.0094  0.2245  0.0963  -0.7593   0.0000   0.3572
  -0.200   0.1023   0.01241   0.00270  -0.0086  0.2206  0.2393  -0.7834   0.0000   0.3310
   0.000   0.1191   0.01184   0.00261  -0.0079  0.2168  0.3746  -0.8077   0.0000   0.3120
   0.200   0.1389   0.01164   0.00259  -0.0074  0.2137  0.4306  -0.8349   0.0000   0.2989
   0.400   0.1595   0.01153   0.00260  -0.0071  0.2109  0.4675  -0.8636   0.0000   0.2896
   0.600   0.1812   0.01154   0.00261  -0.0070  0.2076  0.4812  -0.8933   0.0000   0.2830
   0.800   0.2031   0.01157   0.00264  -0.0068  0.2044  0.4902  -0.9234   0.0000   0.2780
   1.000   0.2250   0.01160   0.00267  -0.0067  0.2014  0.4997  -0.9537   0.0000   0.2739
   1.200   0.2469   0.01163   0.00270  -0.0066  0.1987  0.5095  -0.9845   0.0000   0.2706
   1.400   0.2688   0.01166   0.00274  -0.0065  0.1963  0.5194  -1.0165   0.0000   0.2677
   1.600   0.2906   0.01170   0.00279  -0.0063  0.1937  0.5297  -1.0486   0.0000   0.2653
   1.800   0.3124   0.01174   0.00283  -0.0062  0.1910  0.5403  -1.0809   0.0000   0.2632
   2.000   0.3341   0.01178   0.00289  -0.0061  0.1882  0.5512  -1.1134   0.0000   0.2613
   2.200   0.3558   0.01182   0.00295  -0.0059  0.1860  0.5622  -1.1464   0.0000   0.2596
   2.400   0.3775   0.01187   0.00301  -0.0058  0.1839  0.5735  -1.1807   0.0000   0.2581
   2.600   0.3991   0.01192   0.00308  -0.0056  0.1817  0.5853  -1.2153   0.0000   0.2568
   2.800   0.4207   0.01197   0.00316  -0.0055  0.1791  0.5971  -1.2499   0.0000   0.2555
   3.000   0.4422   0.01202   0.00323  -0.0053  0.1766  0.6092  -1.2848   0.0000   0.2543
   3.200   0.4637   0.01208   0.00332  -0.0051  0.1746  0.6216  -1.3201   0.0000   0.2533
   3.400   0.4851   0.01214   0.00341  -0.0050  0.1728  0.6341  -1.3569   0.0000   0.2522
   3.600   0.5065   0.01220   0.00350  -0.0048  0.1706  0.6469  -1.3939   0.0000   0.2513
   3.800   0.5278   0.01227   0.00361  -0.0046  0.1682  0.6601  -1.4310   0.0000   0.2504
   4.200   0.5702   0.01241   0.00383  -0.0042  0.1641  0.6870  -1.5064   0.0000   0.2486
   4.400   0.5913   0.01249   0.00394  -0.0039  0.1624  0.7007  -1.5457   0.0000   0.2478
   4.600   0.6123   0.01256   0.00406  -0.0037  0.1602  0.7147  -1.5852   0.0000   0.2470
   4.800   0.6332   0.01265   0.00419  -0.0034  0.1578  0.7289  -1.6249   0.0000   0.2462
   5.000   0.6540   0.01274   0.00433  -0.0032  0.1557  0.7432  -1.6647   0.0000   0.2455
   5.200   0.6747   0.01283   0.00447  -0.0029  0.1540  0.7576  -1.7058   0.0000   0.2447
   5.400   0.6954   0.01293   0.00462  -0.0026  0.1523  0.7721  -1.7478   0.0000   0.2439
   5.600   0.7160   0.01303   0.00477  -0.0022  0.1502  0.7867  -1.7899   0.0000   0.2432
   5.800   0.7364   0.01314   0.00493  -0.0019  0.1479  0.8013  -1.8321   0.0000   0.2424
   6.000   0.7566   0.01326   0.00510  -0.0015  0.1459  0.8158  -1.8750   0.0000   0.2417
   6.200   0.7768   0.01338   0.00527  -0.0011  0.1443  0.8302  -1.9194   0.0000   0.2409
   6.400   0.7970   0.01351   0.00545  -0.0007  0.1425  0.8444  -1.9641   0.0000   0.2402
   6.600   0.8171   0.01364   0.00563  -0.0004  0.1404  0.8582  -2.0090   0.0000   0.2394
   6.800   0.8372   0.01380   0.00583   0.0000  0.1382  0.8717  -2.0545   0.0000   0.2387
   7.000   0.8573   0.01396   0.00603   0.0004  0.1363  0.8845  -2.1021   0.0000   0.2381
   7.200   0.8777   0.01413   0.00624   0.0007  0.1347  0.8967  -2.1502   0.0000   0.2375
   7.400   0.8984   0.01431   0.00645   0.0009  0.1326  0.9081  -2.1992   0.0000   0.2371
   7.600   0.9195   0.01451   0.00667   0.0010  0.1304  0.9186  -2.2500   0.0000   0.2367
   7.800   0.9409   0.01471   0.00690   0.0011  0.1283  0.9282  -2.3026   0.0000   0.2365
   8.000   0.9624   0.01493   0.00714   0.0010  0.1265  0.9370  -2.3558   0.0000   0.2363
   8.200   0.9841   0.01515   0.00738   0.0009  0.1244  0.9450  -2.4104   0.0000   0.2362
   8.400   1.0060   0.01538   0.00763   0.0007  0.1222  0.9522  -2.4673   0.0000   0.2361
   8.600   1.0277   0.01563   0.00789   0.0006  0.1200  0.9588  -2.5243   0.0000   0.2360
   8.800   1.0488   0.01588   0.00815   0.0005  0.1180  0.9651  -2.5826   0.0000   0.2359
   9.000   1.0700   0.01614   0.00843   0.0004  0.1158  0.9710  -2.6423   0.0000   0.2357
   9.200   1.0910   0.01640   0.00870   0.0004  0.1136  0.9764  -2.7031   0.0000   0.2355
   9.400   1.1114   0.01667   0.00900   0.0004  0.1113  0.9818  -2.7653   0.0000   0.2352
   9.600   1.1312   0.01697   0.00931   0.0005  0.1091  0.9871  -2.8282   0.0000   0.2348
   9.800   1.1511   0.01726   0.00962   0.0006  0.1069  0.9921  -2.8937   0.0000   0.2345
  10.000   1.1704   0.01756   0.00994   0.0008  0.1044  0.9971  -2.9610   0.0000   0.2340
  10.200   1.1874   0.01787   0.01027   0.0014  0.1021  1.0000  -3.0265   0.0000   0.2332
  10.400   1.2019   0.01819   0.01060   0.0025  0.0999  1.0000  -3.0907   0.0000   0.2320
  10.600   1.2164   0.01850   0.01094   0.0036  0.0975  1.0000  -3.1584   0.0000   0.2308
  10.800   1.2299   0.01884   0.01129   0.0049  0.0952  1.0000  -3.2271   0.0000   0.2295
  11.000   1.2421   0.01921   0.01167   0.0063  0.0927  1.0000  -3.2953   0.0000   0.2281
  11.200   1.2545   0.01958   0.01207   0.0077  0.0903  1.0000  -3.3684   0.0000   0.2267
  11.400   1.2666   0.01999   0.01250   0.0091  0.0876  1.0000  -3.4422   0.0000   0.2253
  11.600   1.2782   0.02045   0.01297   0.0104  0.0849  1.0000  -3.5187   0.0000   0.2240
  11.800   1.2901   0.02091   0.01346   0.0116  0.0822  1.0000  -3.5963   0.0000   0.2228
  12.000   1.3013   0.02145   0.01401   0.0129  0.0791  1.0000  -3.6766   0.0000   0.2216
  12.200   1.3123   0.02201   0.01460   0.0141  0.0762  1.0000  -3.7575   0.0000   0.2204
  12.400   1.3227   0.02263   0.01525   0.0152  0.0730  1.0000  -3.8373   0.0000   0.2192
  12.600   1.3324   0.02332   0.01595   0.0164  0.0699  1.0000  -3.9182   0.0000   0.2181
  12.800   1.3418   0.02404   0.01670   0.0175  0.0666  1.0000  -4.0011   0.0000   0.2170
  13.000   1.3502   0.02486   0.01755   0.0186  0.0635  1.0000  -4.0813   0.0000   0.2159
  13.200   1.3583   0.02573   0.01845   0.0196  0.0603  1.0000  -4.1610   0.0000   0.2149
  13.400   1.3654   0.02671   0.01945   0.0205  0.0574  1.0000  -4.2379   0.0000   0.2138
  13.600   1.3723   0.02774   0.02052   0.0214  0.0545  1.0000  -4.3171   0.0000   0.2129
  13.800   1.3779   0.02892   0.02174   0.0222  0.0518  1.0000  -4.3943   0.0000   0.2119
  14.000   1.3836   0.03015   0.02300   0.0228  0.0492  1.0000  -4.4718   0.0000   0.2111
  14.200   1.3879   0.03153   0.02443   0.0234  0.0468  1.0000  -4.5449   0.0000   0.2103
  14.400   1.3918   0.03303   0.02598   0.0238  0.0446  1.0000  -4.6159   0.0000   0.2096
  14.600   1.3948   0.03467   0.02767   0.0241  0.0424  1.0000  -4.6838   0.0000   0.2090
  14.800   1.3967   0.03648   0.02954   0.0242  0.0407  1.0000  -4.7474   0.0000   0.2085
  15.000   1.3983   0.03839   0.03152   0.0242  0.0390  1.0000  -4.8097   0.0000   0.2080
  15.200   1.3985   0.04054   0.03374   0.0241  0.0373  1.0000  -4.8677   0.0000   0.2077
  15.400   1.3969   0.04294   0.03621   0.0237  0.0359  1.0000  -4.9208   0.0000   0.2074
  15.600   1.3951   0.04547   0.03881   0.0232  0.0346  1.0000  -4.9719   0.0000   0.2073
  15.800   1.3920   0.04822   0.04164   0.0225  0.0335  1.0000  -5.0173   0.0000   0.2072
  16.000   1.3871   0.05126   0.04477   0.0217  0.0324  1.0000  -5.0538   0.0000   0.2073
  16.200   1.3803   0.05461   0.04821   0.0206  0.0315  1.0000  -5.0812   0.0000   0.2074
  16.400   1.3721   0.05826   0.05197   0.0194  0.0307  1.0000  -5.1007   0.0000   0.2077
  16.600   1.3630   0.06211   0.05592   0.0180  0.0300  1.0000  -5.1149   0.0000   0.2081
  16.800   1.3520   0.06627   0.06018   0.0165  0.0293  1.0000  -5.1194   0.0000   0.2086
  17.000   1.3395   0.07074   0.06476   0.0148  0.0287  1.0000  -5.1145   0.0000   0.2092
  17.200   1.3254   0.07552   0.06964   0.0129  0.0282  1.0000  -5.1007   0.0000   0.2100
  17.400   1.3100   0.08055   0.07479   0.0109  0.0278  1.0000  -5.0779   0.0000   0.2109
  17.600   1.2935   0.08582   0.08017   0.0088  0.0274  1.0000  -5.0479   0.0000   0.2120
  17.800   1.2765   0.09124   0.08570   0.0065  0.0271  1.0000  -5.0129   0.0000   0.2131
  18.000   1.2594   0.09673   0.09129   0.0042  0.0267  1.0000  -4.9748   0.0000   0.2144
  18.200   1.2422   0.10229   0.09696   0.0018  0.0264  1.0000  -4.9335   0.0000   0.2158
  18.400   1.2270   0.10763   0.10239  -0.0005  0.0260  1.0000  -4.8993   0.0000   0.2172
  18.600   1.2127   0.11287   0.10772  -0.0028  0.0256  1.0000  -4.8674   0.0000   0.2186
  18.800   1.1992   0.11801   0.11294  -0.0051  0.0252  1.0000  -4.8375   0.0000   0.2201
  19.000   1.1869   0.12301   0.11803  -0.0075  0.0247  1.0000  -4.8110   0.0000   0.2217
  19.200   1.1757   0.12790   0.12299  -0.0098  0.0241  1.0000  -4.7882   0.0000   0.2233
  19.400   1.1654   0.13268   0.12784  -0.0121  0.0236  1.0000  -4.7679   0.0000   0.2249
  19.600   1.1561   0.13735   0.13258  -0.0145  0.0230  1.0000  -4.7504   0.0000   0.2266
  19.800   1.1478   0.14186   0.13714  -0.0168  0.0225  1.0000  -4.7368   0.0000   0.2283
  20.000   1.1409   0.14614   0.14149  -0.0191  0.0221  1.0000  -4.7299   0.0000   0.2299
  20.200   1.1352   0.15028   0.14568  -0.0213  0.0216  1.0000  -4.7302   0.0000   0.2315
  20.400   1.1307   0.15423   0.14968  -0.0235  0.0211  1.0000  -4.7367   0.0000   0.2331
  20.600   1.1260   0.15826   0.15377  -0.0258  0.0206  1.0000  -4.7399   0.0000   0.2347
  20.800   1.1224   0.16210   0.15767  -0.0281  0.0201  1.0000  -4.7482   0.0000   0.2363
  21.000   1.1186   0.16605   0.16166  -0.0304  0.0195  1.0000  -4.7528   0.0000   0.2381
  21.200   1.1155   0.16987   0.16553  -0.0327  0.0190  1.0000  -4.7606   0.0000   0.2398
  21.400   1.1119   0.17381   0.16951  -0.0352  0.0185  1.0000  -4.7628   0.0000   0.2416
  21.600   1.1103   0.17735   0.17310  -0.0374  0.0179  1.0000  -4.7782   0.0000   0.2432
  21.800   1.1083   0.18102   0.17682  -0.0397  0.0174  1.0000  -4.7882   0.0000   0.2449
  22.000   1.1072   0.18454   0.18037  -0.0420  0.0169  1.0000  -4.8033   0.0000   0.2465
  22.200   1.1058   0.18812   0.18400  -0.0444  0.0164  1.0000  -4.8151   0.0000   0.2482
  22.400   1.1051   0.19161   0.18753  -0.0467  0.0160  1.0000  -4.8295   0.0000   0.2499
  22.600   1.1046   0.19507   0.19103  -0.0491  0.0156  1.0000  -4.8445   0.0000   0.2516
  22.800   1.1038   0.19864   0.19464  -0.0515  0.0153  1.0000  -4.8542   0.0000   0.2534
  23.000   1.1037   0.20205   0.19810  -0.0539  0.0150  1.0000  -4.8689   0.0000   0.2550
  23.200   1.1038   0.20543   0.20152  -0.0563  0.0146  1.0000  -4.8837   0.0000   0.2567
  23.400   1.1044   0.20873   0.20486  -0.0587  0.0142  1.0000  -4.9011   0.0000   0.2583
  23.600   1.1050   0.21203   0.20820  -0.0611  0.0138  1.0000  -4.9171   0.0000   0.2600
  23.800   1.1051   0.21550   0.21171  -0.0636  0.0134  1.0000  -4.9258   0.0000   0.2618
  24.000   1.1057   0.21884   0.21509  -0.0661  0.0129  1.0000  -4.9385   0.0000   0.2635
  24.200   1.1056   0.22237   0.21865  -0.0687  0.0125  1.0000  -4.9464   0.0000   0.2654
  24.400   1.1058   0.22584   0.22216  -0.0713  0.0121  1.0000  -4.9554   0.0000   0.2672
  24.600   1.1065   0.22921   0.22556  -0.0738  0.0118  1.0000  -4.9671   0.0000   0.2690
  24.800   1.1075   0.23248   0.22887  -0.0763  0.0115  1.0000  -4.9815   0.0000   0.2707
  25.000   1.1091   0.23561   0.23204  -0.0787  0.0112  1.0000  -5.0007   0.0000   0.2722


