xflr5 v6.47

 Calculated polar for: NACA 23015

 1 1 Reynolds number fixed          Mach number fixed         

 xtrf =   1.000 (top)        1.000 (bottom)
 Mach =   0.000     Re =     0.350 e 6     Ncrit =   1.000

  alpha     CL        CD       CDp       Cm    Top Xtr Bot Xtr   Cpmin    Chinge    XCp    
 ------- -------- --------- --------- -------- ------- ------- -------- --------- ---------
 -10.000  -0.8718   0.02053   0.01319  -0.0304  0.9306  0.0148  -5.7919   0.0000   0.2025
  -9.800  -0.8527   0.02009   0.01269  -0.0301  0.9183  0.0150  -5.6339   0.0000   0.2023
  -9.600  -0.8339   0.01968   0.01223  -0.0296  0.9048  0.0153  -5.4769   0.0000   0.2023
  -9.400  -0.8158   0.01929   0.01178  -0.0290  0.8902  0.0157  -5.3238   0.0000   0.2024
  -9.200  -0.7981   0.01893   0.01135  -0.0282  0.8747  0.0160  -5.1742   0.0000   0.2028
  -9.000  -0.7806   0.01859   0.01094  -0.0274  0.8585  0.0164  -5.0271   0.0000   0.2032
  -8.800  -0.7630   0.01828   0.01054  -0.0265  0.8419  0.0167  -4.8820   0.0000   0.2037
  -8.600  -0.7454   0.01797   0.01015  -0.0257  0.8252  0.0171  -4.7381   0.0000   0.2042
  -8.400  -0.7275   0.01769   0.00977  -0.0249  0.8082  0.0173  -4.5953   0.0000   0.2046
  -8.200  -0.7095   0.01742   0.00941  -0.0241  0.7912  0.0176  -4.4534   0.0000   0.2050
  -8.000  -0.6912   0.01716   0.00906  -0.0234  0.7742  0.0178  -4.3125   0.0000   0.2053
  -7.800  -0.6727   0.01692   0.00872  -0.0227  0.7574  0.0181  -4.1815   0.0000   0.2056
  -7.600  -0.6540   0.01668   0.00840  -0.0220  0.7407  0.0183  -4.0512   0.0000   0.2058
  -7.400  -0.6351   0.01645   0.00808  -0.0214  0.7241  0.0187  -3.9211   0.0000   0.2059
  -7.200  -0.6161   0.01623   0.00779  -0.0208  0.7077  0.0192  -3.7916   0.0000   0.2060
  -7.000  -0.5969   0.01602   0.00750  -0.0202  0.6915  0.0198  -3.6632   0.0000   0.2060
  -6.800  -0.5776   0.01582   0.00723  -0.0197  0.6756  0.0204  -3.5362   0.0000   0.2059
  -6.600  -0.5581   0.01563   0.00696  -0.0191  0.6599  0.0210  -3.4106   0.0000   0.2058
  -6.400  -0.5385   0.01545   0.00670  -0.0186  0.6444  0.0215  -3.2864   0.0000   0.2056
  -6.200  -0.5186   0.01528   0.00645  -0.0181  0.6291  0.0220  -3.1635   0.0000   0.2053
  -6.000  -0.4987   0.01512   0.00621  -0.0177  0.6138  0.0224  -3.0418   0.0000   0.2049
  -5.800  -0.4787   0.01496   0.00599  -0.0172  0.5987  0.0228  -2.9212   0.0000   0.2045
  -5.600  -0.4586   0.01481   0.00577  -0.0168  0.5838  0.0234  -2.8019   0.0000   0.2039
  -5.400  -0.4384   0.01467   0.00556  -0.0164  0.5689  0.0243  -2.6840   0.0000   0.2032
  -5.200  -0.4181   0.01454   0.00536  -0.0160  0.5540  0.0252  -2.5676   0.0000   0.2024
  -5.000  -0.3977   0.01441   0.00517  -0.0156  0.5391  0.0261  -2.4554   0.0000   0.2015
  -4.800  -0.3772   0.01430   0.00499  -0.0152  0.5240  0.0269  -2.3500   0.0000   0.2003
  -4.600  -0.3567   0.01419   0.00482  -0.0149  0.5086  0.0277  -2.2460   0.0000   0.1991
  -4.400  -0.3361   0.01409   0.00465  -0.0145  0.4927  0.0285  -2.1435   0.0000   0.1976
  -4.200  -0.3155   0.01401   0.00449  -0.0142  0.4759  0.0295  -2.0423   0.0000   0.1958
  -4.000  -0.2949   0.01395   0.00435  -0.0138  0.4565  0.0307  -1.9429   0.0000   0.1938
  -3.800  -0.2747   0.01393   0.00422  -0.0134  0.4291  0.0320  -1.8455   0.0000   0.1918
  -3.600  -0.2545   0.01393   0.00409  -0.0130  0.3977  0.0334  -1.7500   0.0000   0.1894
  -3.400  -0.2341   0.01394   0.00398  -0.0127  0.3682  0.0346  -1.6557   0.0000   0.1864
  -3.200  -0.2135   0.01394   0.00387  -0.0124  0.3453  0.0360  -1.5624   0.0000   0.1825
  -3.000  -0.1925   0.01389   0.00377  -0.0121  0.3308  0.0378  -1.4761   0.0000   0.1775
  -2.800  -0.1714   0.01384   0.00367  -0.0118  0.3191  0.0397  -1.3915   0.0000   0.1710
  -2.600  -0.1502   0.01380   0.00357  -0.0116  0.3079  0.0416  -1.3082   0.0000   0.1625
  -2.400  -0.1289   0.01375   0.00349  -0.0114  0.2980  0.0439  -1.2261   0.0000   0.1512
  -2.200  -0.1076   0.01371   0.00341  -0.0111  0.2886  0.0464  -1.1453   0.0000   0.1351
  -2.000  -0.0862   0.01367   0.00334  -0.0109  0.2797  0.0492  -1.0659   0.0000   0.1111
  -1.800  -0.0649   0.01364   0.00328  -0.0107  0.2717  0.0524  -0.9903   0.0000   0.0710
  -1.600  -0.0434   0.01361   0.00322  -0.0105  0.2639  0.0561  -0.9195   0.0000  -0.0088
  -1.400  -0.0220   0.01358   0.00317  -0.0103  0.2571  0.0604  -0.8497   0.0000  -0.2449
  -1.200  -0.0005   0.01355   0.00312  -0.0101  0.2509  0.0655  -0.7812   0.0000  -19.7355
  -1.000   0.0210   0.01352   0.00308  -0.0099  0.2450  0.0718  -0.7140   0.0000   0.7360
  -0.800   0.0424   0.01349   0.00304  -0.0097  0.2392  0.0799  -0.7043   0.0000   0.4820
  -0.600   0.0637   0.01345   0.00301  -0.0095  0.2343  0.0910  -0.7315   0.0000   0.3985
  -0.400   0.0842   0.01328   0.00294  -0.0092  0.2300  0.1288  -0.7581   0.0000   0.3569
   0.000   0.1169   0.01205   0.00271  -0.0076  0.2225  0.4142  -0.8058   0.0000   0.3105
   0.200   0.1369   0.01190   0.00271  -0.0071  0.2184  0.4601  -0.8331   0.0000   0.2975
   0.400   0.1580   0.01186   0.00272  -0.0069  0.2150  0.4835  -0.8622   0.0000   0.2884
   0.600   0.1798   0.01188   0.00274  -0.0067  0.2121  0.4930  -0.8920   0.0000   0.2820
   0.800   0.2017   0.01191   0.00276  -0.0066  0.2088  0.5024  -0.9219   0.0000   0.2770
   1.000   0.2234   0.01195   0.00279  -0.0065  0.2055  0.5122  -0.9521   0.0000   0.2729
   1.200   0.2452   0.01198   0.00283  -0.0063  0.2025  0.5223  -0.9827   0.0000   0.2695
   1.400   0.2670   0.01201   0.00287  -0.0062  0.1998  0.5326  -1.0146   0.0000   0.2667
   1.600   0.2887   0.01205   0.00292  -0.0060  0.1973  0.5432  -1.0466   0.0000   0.2643
   1.800   0.3103   0.01209   0.00297  -0.0058  0.1946  0.5543  -1.0787   0.0000   0.2621
   2.000   0.3319   0.01214   0.00303  -0.0057  0.1920  0.5654  -1.1111   0.0000   0.2602
   2.200   0.3535   0.01218   0.00309  -0.0055  0.1893  0.5769  -1.1439   0.0000   0.2586
   2.400   0.3751   0.01223   0.00316  -0.0054  0.1870  0.5886  -1.1781   0.0000   0.2570
   2.600   0.3966   0.01228   0.00323  -0.0052  0.1848  0.6005  -1.2124   0.0000   0.2557
   2.800   0.4180   0.01234   0.00331  -0.0050  0.1826  0.6128  -1.2469   0.0000   0.2544
   3.000   0.4394   0.01239   0.00339  -0.0048  0.1801  0.6253  -1.2816   0.0000   0.2532
   3.200   0.4607   0.01245   0.00348  -0.0046  0.1776  0.6379  -1.3167   0.0000   0.2521
   3.400   0.4820   0.01251   0.00358  -0.0044  0.1755  0.6508  -1.3533   0.0000   0.2511
   3.600   0.5032   0.01258   0.00368  -0.0042  0.1736  0.6640  -1.3901   0.0000   0.2501
   3.800   0.5244   0.01265   0.00378  -0.0040  0.1715  0.6773  -1.4271   0.0000   0.2492
   4.000   0.5455   0.01272   0.00390  -0.0037  0.1691  0.6909  -1.4642   0.0000   0.2483
   4.200   0.5665   0.01280   0.00402  -0.0035  0.1668  0.7047  -1.5019   0.0000   0.2474
   4.400   0.5874   0.01288   0.00414  -0.0032  0.1649  0.7187  -1.5410   0.0000   0.2466
   4.600   0.6082   0.01297   0.00427  -0.0029  0.1631  0.7330  -1.5803   0.0000   0.2458
   4.800   0.6290   0.01305   0.00440  -0.0026  0.1611  0.7472  -1.6198   0.0000   0.2450
   5.000   0.6497   0.01315   0.00455  -0.0023  0.1587  0.7616  -1.6594   0.0000   0.2442
   5.200   0.6703   0.01325   0.00470  -0.0020  0.1565  0.7761  -1.7002   0.0000   0.2434
   5.400   0.6908   0.01336   0.00486  -0.0016  0.1548  0.7907  -1.7419   0.0000   0.2426
   5.600   0.7111   0.01347   0.00502  -0.0013  0.1531  0.8052  -1.7837   0.0000   0.2418
   5.800   0.7315   0.01359   0.00519  -0.0009  0.1510  0.8196  -1.8258   0.0000   0.2411
   6.000   0.7517   0.01371   0.00537  -0.0005  0.1488  0.8338  -1.8684   0.0000   0.2403
   6.200   0.7719   0.01385   0.00555  -0.0001  0.1467  0.8478  -1.9128   0.0000   0.2396
   6.400   0.7921   0.01400   0.00574   0.0002  0.1450  0.8613  -1.9574   0.0000   0.2389
   6.600   0.8125   0.01416   0.00593   0.0006  0.1432  0.8744  -2.0025   0.0000   0.2382
   6.800   0.8330   0.01432   0.00614   0.0009  0.1411  0.8869  -2.0483   0.0000   0.2377
   7.000   0.8539   0.01450   0.00635   0.0011  0.1389  0.8985  -2.0967   0.0000   0.2373
   7.200   0.8751   0.01469   0.00656   0.0012  0.1370  0.9094  -2.1457   0.0000   0.2370
   7.400   0.8965   0.01490   0.00679   0.0012  0.1351  0.9195  -2.1954   0.0000   0.2367
   7.600   0.9183   0.01510   0.00703   0.0011  0.1331  0.9287  -2.2470   0.0000   0.2366
   7.800   0.9401   0.01532   0.00726   0.0010  0.1309  0.9371  -2.3002   0.0000   0.2365
   8.000   0.9619   0.01554   0.00750   0.0009  0.1288  0.9450  -2.3535   0.0000   0.2364
   8.200   0.9838   0.01578   0.00776   0.0007  0.1268  0.9520  -2.4085   0.0000   0.2364
   8.400   1.0055   0.01603   0.00803   0.0006  0.1248  0.9586  -2.4650   0.0000   0.2363
   8.600   1.0268   0.01627   0.00829   0.0005  0.1226  0.9649  -2.5213   0.0000   0.2361
   8.800   1.0481   0.01653   0.00856   0.0004  0.1204  0.9707  -2.5797   0.0000   0.2360
   9.000   1.0688   0.01680   0.00885   0.0004  0.1183  0.9763  -2.6387   0.0000   0.2357
   9.200   1.0891   0.01708   0.00914   0.0004  0.1162  0.9818  -2.6983   0.0000   0.2354
   9.400   1.1091   0.01735   0.00945   0.0005  0.1140  0.9872  -2.7599   0.0000   0.2351
   9.600   1.1288   0.01765   0.00976   0.0006  0.1118  0.9924  -2.8224   0.0000   0.2347
   9.800   1.1481   0.01796   0.01010   0.0008  0.1095  0.9975  -2.8867   0.0000   0.2343
  10.000   1.1649   0.01826   0.01041   0.0015  0.1074  1.0000  -2.9494   0.0000   0.2334
  10.200   1.1797   0.01856   0.01074   0.0026  0.1052  1.0000  -3.0105   0.0000   0.2322
  10.400   1.1940   0.01888   0.01108   0.0037  0.1030  1.0000  -3.0742   0.0000   0.2310
  10.600   1.2077   0.01923   0.01144   0.0049  0.1007  1.0000  -3.1393   0.0000   0.2297
  10.800   1.2206   0.01956   0.01180   0.0063  0.0985  1.0000  -3.2059   0.0000   0.2283
  11.000   1.2330   0.01993   0.01219   0.0077  0.0962  1.0000  -3.2742   0.0000   0.2269
  11.200   1.2449   0.02034   0.01263   0.0091  0.0937  1.0000  -3.3450   0.0000   0.2255
  11.400   1.2570   0.02076   0.01307   0.0104  0.0913  1.0000  -3.4174   0.0000   0.2242
  11.600   1.2690   0.02121   0.01355   0.0116  0.0887  1.0000  -3.4944   0.0000   0.2230
  11.800   1.2804   0.02173   0.01409   0.0128  0.0860  1.0000  -3.5703   0.0000   0.2218
  12.000   1.2918   0.02226   0.01465   0.0140  0.0833  1.0000  -3.6494   0.0000   0.2206
  12.200   1.3026   0.02284   0.01526   0.0152  0.0804  1.0000  -3.7295   0.0000   0.2194
  12.400   1.3127   0.02349   0.01593   0.0163  0.0774  1.0000  -3.8082   0.0000   0.2183
  12.600   1.3227   0.02417   0.01664   0.0174  0.0744  1.0000  -3.8879   0.0000   0.2172
  12.800   1.3315   0.02495   0.01745   0.0185  0.0713  1.0000  -3.9684   0.0000   0.2161
  13.000   1.3403   0.02576   0.01829   0.0195  0.0683  1.0000  -4.0495   0.0000   0.2151
  13.200   1.3479   0.02669   0.01924   0.0204  0.0652  1.0000  -4.1272   0.0000   0.2141
  13.400   1.3551   0.02768   0.02028   0.0213  0.0622  1.0000  -4.2038   0.0000   0.2131
  13.600   1.3615   0.02877   0.02141   0.0221  0.0592  1.0000  -4.2790   0.0000   0.2121
  13.800   1.3672   0.02996   0.02264   0.0229  0.0565  1.0000  -4.3560   0.0000   0.2113
  14.000   1.3722   0.03127   0.02399   0.0235  0.0537  1.0000  -4.4305   0.0000   0.2105
  14.200   1.3761   0.03273   0.02549   0.0240  0.0513  1.0000  -4.5012   0.0000   0.2097
  14.400   1.3798   0.03427   0.02709   0.0243  0.0489  1.0000  -4.5711   0.0000   0.2091
  14.600   1.3820   0.03601   0.02889   0.0245  0.0467  1.0000  -4.6354   0.0000   0.2085
  14.800   1.3836   0.03789   0.03083   0.0246  0.0447  1.0000  -4.6971   0.0000   0.2080
  15.000   1.3842   0.03995   0.03296   0.0245  0.0428  1.0000  -4.7546   0.0000   0.2076
  15.200   1.3834   0.04223   0.03531   0.0242  0.0411  1.0000  -4.8064   0.0000   0.2073
  15.400   1.3821   0.04465   0.03780   0.0238  0.0397  1.0000  -4.8584   0.0000   0.2071
  15.600   1.3794   0.04731   0.04054   0.0232  0.0382  1.0000  -4.9050   0.0000   0.2070
  15.800   1.3748   0.05028   0.04359   0.0224  0.0369  1.0000  -4.9429   0.0000   0.2070
  16.000   1.3683   0.05355   0.04696   0.0215  0.0358  1.0000  -4.9715   0.0000   0.2071
  16.200   1.3615   0.05697   0.05047   0.0203  0.0348  1.0000  -4.9973   0.0000   0.2074
  16.400   1.3532   0.06067   0.05427   0.0190  0.0339  1.0000  -5.0155   0.0000   0.2077
  16.600   1.3431   0.06468   0.05839   0.0176  0.0331  1.0000  -5.0241   0.0000   0.2082
  16.800   1.3313   0.06902   0.06284   0.0159  0.0323  1.0000  -5.0229   0.0000   0.2088
  17.000   1.3178   0.07369   0.06761   0.0141  0.0317  1.0000  -5.0123   0.0000   0.2095
  17.200   1.3028   0.07864   0.07267   0.0121  0.0312  1.0000  -4.9926   0.0000   0.2104
  17.400   1.2869   0.08380   0.07795   0.0100  0.0308  1.0000  -4.9658   0.0000   0.2114
  17.600   1.2709   0.08906   0.08332   0.0078  0.0303  1.0000  -4.9364   0.0000   0.2125
  17.800   1.2546   0.09443   0.08879   0.0056  0.0299  1.0000  -4.9031   0.0000   0.2138
  18.000   1.2381   0.09987   0.09434   0.0033  0.0294  1.0000  -4.8662   0.0000   0.2151
  18.200   1.2223   0.10529   0.09986   0.0009  0.0290  1.0000  -4.8297   0.0000   0.2165
  18.400   1.2070   0.11070   0.10536  -0.0015  0.0285  1.0000  -4.7933   0.0000   0.2180
  18.600   1.1926   0.11600   0.11075  -0.0039  0.0279  1.0000  -4.7590   0.0000   0.2196
  18.800   1.1792   0.12118   0.11602  -0.0063  0.0274  1.0000  -4.7273   0.0000   0.2212
  19.000   1.1669   0.12626   0.12117  -0.0087  0.0269  1.0000  -4.6987   0.0000   0.2229
  19.200   1.1557   0.13121   0.12620  -0.0111  0.0264  1.0000  -4.6733   0.0000   0.2246
  19.400   1.1467   0.13584   0.13090  -0.0134  0.0258  1.0000  -4.6577   0.0000   0.2263
  19.600   1.1386   0.14033   0.13545  -0.0157  0.0252  1.0000  -4.6452   0.0000   0.2279
  19.800   1.1308   0.14480   0.13999  -0.0181  0.0246  1.0000  -4.6322   0.0000   0.2297
  20.000   1.1240   0.14915   0.14440  -0.0204  0.0239  1.0000  -4.6225   0.0000   0.2314
  20.200   1.1181   0.15339   0.14868  -0.0228  0.0233  1.0000  -4.6163   0.0000   0.2331
  20.400   1.1122   0.15768   0.15303  -0.0252  0.0227  1.0000  -4.6099   0.0000   0.2350
  20.600   1.1076   0.16175   0.15716  -0.0275  0.0221  1.0000  -4.6106   0.0000   0.2368
  20.800   1.1041   0.16566   0.16112  -0.0299  0.0216  1.0000  -4.6161   0.0000   0.2385
  21.000   1.1014   0.16942   0.16493  -0.0321  0.0210  1.0000  -4.6258   0.0000   0.2402
  21.200   1.0985   0.17323   0.16879  -0.0345  0.0205  1.0000  -4.6326   0.0000   0.2419
  21.400   1.0965   0.17689   0.17250  -0.0367  0.0199  1.0000  -4.6431   0.0000   0.2436
  21.600   1.0938   0.18073   0.17638  -0.0392  0.0194  1.0000  -4.6474   0.0000   0.2455
  21.800   1.0919   0.18445   0.18014  -0.0416  0.0188  1.0000  -4.6550   0.0000   0.2473
  22.000   1.0899   0.18822   0.18395  -0.0440  0.0183  1.0000  -4.6594   0.0000   0.2492
  22.200   1.0894   0.19169   0.18747  -0.0463  0.0177  1.0000  -4.6743   0.0000   0.2508
  22.400   1.0885   0.19527   0.19110  -0.0488  0.0172  1.0000  -4.6841   0.0000   0.2526
  22.600   1.0881   0.19879   0.19465  -0.0512  0.0167  1.0000  -4.6957   0.0000   0.2544
  22.800   1.0878   0.20230   0.19820  -0.0536  0.0161  1.0000  -4.7062   0.0000   0.2562
  23.000   1.0874   0.20585   0.20180  -0.0561  0.0157  1.0000  -4.7142   0.0000   0.2580
  23.200   1.0876   0.20928   0.20527  -0.0585  0.0153  1.0000  -4.7256   0.0000   0.2597
  23.400   1.0873   0.21287   0.20890  -0.0610  0.0150  1.0000  -4.7301   0.0000   0.2616
  23.600   1.0884   0.21611   0.21217  -0.0634  0.0147  1.0000  -4.7469   0.0000   0.2633
  23.800   1.0893   0.21942   0.21553  -0.0658  0.0143  1.0000  -4.7594   0.0000   0.2650
  24.000   1.0901   0.22276   0.21891  -0.0683  0.0139  1.0000  -4.7693   0.0000   0.2667
  24.200   1.0912   0.22604   0.22223  -0.0707  0.0134  1.0000  -4.7820   0.0000   0.2684
  24.400   1.0917   0.22951   0.22573  -0.0733  0.0130  1.0000  -4.7889   0.0000   0.2703
  24.600   1.0925   0.23288   0.22914  -0.0759  0.0125  1.0000  -4.7984   0.0000   0.2721
  24.800   1.0930   0.23638   0.23267  -0.0785  0.0121  1.0000  -4.8015   0.0000   0.2740
  25.000   1.0941   0.23971   0.23604  -0.0811  0.0118  1.0000  -4.8096   0.0000   0.2757


