xflr5 v6.47

 Calculated polar for: NACA 23015

 1 1 Reynolds number fixed          Mach number fixed         

 xtrf =   1.000 (top)        1.000 (bottom)
 Mach =   0.000     Re =     1.750 e 6     Ncrit =   1.000

  alpha     CL        CD       CDp       Cm    Top Xtr Bot Xtr   Cpmin    Chinge    XCp    
 ------- -------- --------- --------- -------- ------- ------- -------- --------- ---------
 -10.000  -0.9493   0.01362   0.00724  -0.0184  0.6880  0.0109  -6.2647   0.0000   0.2184
  -9.800  -0.9295   0.01344   0.00700  -0.0180  0.6726  0.0111  -6.0923   0.0000   0.2186
  -9.600  -0.9095   0.01325   0.00677  -0.0176  0.6576  0.0114  -5.9213   0.0000   0.2189
  -9.400  -0.8894   0.01308   0.00654  -0.0172  0.6428  0.0116  -5.7516   0.0000   0.2191
  -9.200  -0.8692   0.01291   0.00632  -0.0168  0.6283  0.0118  -5.5833   0.0000   0.2192
  -9.000  -0.8488   0.01275   0.00611  -0.0164  0.6140  0.0119  -5.4166   0.0000   0.2194
  -8.800  -0.8284   0.01258   0.00591  -0.0161  0.6001  0.0121  -5.2517   0.0000   0.2195
  -8.600  -0.8079   0.01243   0.00571  -0.0157  0.5864  0.0123  -5.0883   0.0000   0.2196
  -8.400  -0.7872   0.01227   0.00551  -0.0154  0.5729  0.0125  -4.9266   0.0000   0.2197
  -8.200  -0.7665   0.01213   0.00532  -0.0151  0.5599  0.0128  -4.7664   0.0000   0.2197
  -8.000  -0.7456   0.01198   0.00514  -0.0148  0.5469  0.0130  -4.6080   0.0000   0.2197
  -7.800  -0.7246   0.01185   0.00497  -0.0145  0.5342  0.0132  -4.4517   0.0000   0.2197
  -7.600  -0.7036   0.01172   0.00480  -0.0142  0.5216  0.0135  -4.3061   0.0000   0.2196
  -7.400  -0.6824   0.01160   0.00464  -0.0140  0.5087  0.0137  -4.1622   0.0000   0.2195
  -7.200  -0.6612   0.01149   0.00448  -0.0137  0.4956  0.0139  -4.0199   0.0000   0.2194
  -7.000  -0.6399   0.01138   0.00433  -0.0135  0.4827  0.0142  -3.8792   0.0000   0.2192
  -6.800  -0.6185   0.01127   0.00418  -0.0133  0.4699  0.0144  -3.7403   0.0000   0.2189
  -6.600  -0.5971   0.01117   0.00404  -0.0131  0.4571  0.0147  -3.6030   0.0000   0.2186
  -6.400  -0.5756   0.01108   0.00391  -0.0129  0.4443  0.0151  -3.4674   0.0000   0.2183
  -6.200  -0.5542   0.01097   0.00377  -0.0126  0.4313  0.0157  -3.3338   0.0000   0.2179
  -6.000  -0.5327   0.01088   0.00364  -0.0124  0.4175  0.0162  -3.2019   0.0000   0.2174
  -5.800  -0.5111   0.01081   0.00352  -0.0122  0.4024  0.0166  -3.0720   0.0000   0.2169
  -5.600  -0.4897   0.01077   0.00341  -0.0120  0.3797  0.0170  -2.9444   0.0000   0.2163
  -5.400  -0.4685   0.01078   0.00332  -0.0118  0.3460  0.0173  -2.8198   0.0000   0.2158
  -5.200  -0.4473   0.01079   0.00322  -0.0116  0.3117  0.0176  -2.6970   0.0000   0.2152
  -5.000  -0.4257   0.01078   0.00313  -0.0114  0.2889  0.0179  -2.5751   0.0000   0.2144
  -4.800  -0.4039   0.01073   0.00304  -0.0112  0.2757  0.0182  -2.4587   0.0000   0.2133
  -4.600  -0.3819   0.01067   0.00295  -0.0111  0.2665  0.0187  -2.3476   0.0000   0.2121
  -4.400  -0.3600   0.01060   0.00286  -0.0110  0.2580  0.0197  -2.2381   0.0000   0.2107
  -4.200  -0.3380   0.01054   0.00278  -0.0108  0.2510  0.0207  -2.1301   0.0000   0.2091
  -4.000  -0.3158   0.01048   0.00270  -0.0107  0.2460  0.0214  -2.0238   0.0000   0.2071
  -3.800  -0.2936   0.01044   0.00263  -0.0106  0.2382  0.0218  -1.9194   0.0000   0.2049
  -3.600  -0.2713   0.01038   0.00257  -0.0106  0.2331  0.0222  -1.8165   0.0000   0.2021
  -3.400  -0.2490   0.01033   0.00250  -0.0105  0.2286  0.0228  -1.7153   0.0000   0.1989
  -3.200  -0.2267   0.01028   0.00244  -0.0104  0.2244  0.0238  -1.6158   0.0000   0.1950
  -3.000  -0.2044   0.01023   0.00238  -0.0103  0.2194  0.0252  -1.5204   0.0000   0.1902
  -2.800  -0.1821   0.01020   0.00233  -0.0103  0.2147  0.0263  -1.4315   0.0000   0.1842
  -2.600  -0.1596   0.01015   0.00227  -0.0102  0.2121  0.0272  -1.3440   0.0000   0.1763
  -2.400  -0.1372   0.01011   0.00223  -0.0102  0.2093  0.0281  -1.2580   0.0000   0.1657
  -2.200  -0.1147   0.01008   0.00219  -0.0101  0.2054  0.0292  -1.1736   0.0000   0.1511
  -2.000  -0.0923   0.01004   0.00215  -0.0101  0.2020  0.0309  -1.0907   0.0000   0.1292
  -1.800  -0.0698   0.01001   0.00211  -0.0100  0.1990  0.0329  -1.0093   0.0000   0.0932
  -1.600  -0.0472   0.00998   0.00208  -0.0100  0.1971  0.0341  -0.9353   0.0000   0.0221
  -1.400  -0.0246   0.00996   0.00205  -0.0100  0.1944  0.0354  -0.8629   0.0000  -0.1789
  -1.200  -0.0021   0.00993   0.00202  -0.0099  0.1916  0.0382  -0.7918   0.0000  -4.5885
  -1.000   0.0204   0.00991   0.00201  -0.0099  0.1884  0.0404  -0.7221   0.0000   0.7495
  -0.800   0.0430   0.00989   0.00199  -0.0099  0.1861  0.0421  -0.7060   0.0000   0.4830
  -0.600   0.0656   0.00987   0.00197  -0.0099  0.1844  0.0456  -0.7342   0.0000   0.4001
  -0.400   0.0881   0.00986   0.00196  -0.0099  0.1823  0.0488  -0.7625   0.0000   0.3596
  -0.200   0.1107   0.00985   0.00195  -0.0099  0.1795  0.0520  -0.7911   0.0000   0.3357
   0.000   0.1332   0.00984   0.00195  -0.0098  0.1765  0.0567  -0.8198   0.0000   0.3198
   0.200   0.1558   0.00983   0.00195  -0.0098  0.1745  0.0613  -0.8499   0.0000   0.3086
   0.400   0.1783   0.00982   0.00195  -0.0098  0.1731  0.0678  -0.8802   0.0000   0.3001
   0.600   0.2009   0.00980   0.00195  -0.0098  0.1712  0.0756  -0.9108   0.0000   0.2936
   0.800   0.2233   0.00979   0.00196  -0.0098  0.1684  0.0874  -0.9415   0.0000   0.2883
   1.000   0.2429   0.00941   0.00189  -0.0094  0.1658  0.2080  -0.9699   0.0000   0.2828
   1.200   0.2611   0.00889   0.00182  -0.0088  0.1641  0.3535  -0.9983   0.0000   0.2777
   1.400   0.2828   0.00878   0.00183  -0.0087  0.1629  0.3936  -1.0303   0.0000   0.2745
   1.600   0.3054   0.00879   0.00186  -0.0087  0.1612  0.4035  -1.0633   0.0000   0.2721
   1.800   0.3281   0.00883   0.00189  -0.0087  0.1586  0.4106  -1.0966   0.0000   0.2700
   2.000   0.3507   0.00887   0.00193  -0.0087  0.1558  0.4173  -1.1301   0.0000   0.2682
   2.200   0.3733   0.00890   0.00197  -0.0087  0.1541  0.4251  -1.1647   0.0000   0.2666
   2.400   0.3959   0.00893   0.00200  -0.0088  0.1530  0.4324  -1.2001   0.0000   0.2652
   2.600   0.4186   0.00896   0.00205  -0.0088  0.1512  0.4406  -1.2358   0.0000   0.2639
   2.800   0.4411   0.00900   0.00210  -0.0088  0.1486  0.4487  -1.2716   0.0000   0.2627
   3.200   0.4860   0.00910   0.00220  -0.0088  0.1444  0.4658  -1.3448   0.0000   0.2606
   3.400   0.5085   0.00913   0.00226  -0.0089  0.1433  0.4745  -1.3829   0.0000   0.2596
   3.600   0.5310   0.00918   0.00232  -0.0089  0.1415  0.4837  -1.4213   0.0000   0.2588
   3.800   0.5533   0.00923   0.00238  -0.0089  0.1389  0.4932  -1.4597   0.0000   0.2579
   4.000   0.5755   0.00929   0.00245  -0.0089  0.1364  0.5024  -1.4984   0.0000   0.2571
   4.200   0.5978   0.00934   0.00252  -0.0089  0.1351  0.5124  -1.5387   0.0000   0.2564
   4.400   0.6201   0.00939   0.00259  -0.0089  0.1339  0.5224  -1.5797   0.0000   0.2557
   4.600   0.6423   0.00944   0.00267  -0.0089  0.1318  0.5327  -1.6208   0.0000   0.2550
   4.800   0.6644   0.00951   0.00275  -0.0088  0.1292  0.5428  -1.6621   0.0000   0.2543
   5.000   0.6864   0.00958   0.00284  -0.0088  0.1272  0.5536  -1.7040   0.0000   0.2537
   5.200   0.7085   0.00964   0.00293  -0.0088  0.1259  0.5650  -1.7476   0.0000   0.2531
   5.400   0.7306   0.00971   0.00301  -0.0088  0.1243  0.5760  -1.7915   0.0000   0.2525
   5.600   0.7525   0.00978   0.00311  -0.0087  0.1219  0.5869  -1.8357   0.0000   0.2519
   5.800   0.7743   0.00987   0.00322  -0.0087  0.1195  0.5987  -1.8799   0.0000   0.2513
   6.000   0.7961   0.00994   0.00332  -0.0086  0.1181  0.6109  -1.9262   0.0000   0.2507
   6.200   0.8178   0.01002   0.00342  -0.0086  0.1165  0.6234  -1.9729   0.0000   0.2501
   6.400   0.8395   0.01010   0.00353  -0.0085  0.1143  0.6359  -2.0200   0.0000   0.2496
   6.600   0.8610   0.01020   0.00366  -0.0084  0.1118  0.6483  -2.0671   0.0000   0.2490
   6.800   0.8825   0.01029   0.00378  -0.0083  0.1102  0.6611  -2.1164   0.0000   0.2484
   7.000   0.9039   0.01039   0.00390  -0.0082  0.1084  0.6745  -2.1662   0.0000   0.2479
   7.200   0.9252   0.01048   0.00403  -0.0081  0.1061  0.6881  -2.2162   0.0000   0.2473
   7.400   0.9464   0.01059   0.00417  -0.0080  0.1038  0.7021  -2.2671   0.0000   0.2468
   7.600   0.9675   0.01070   0.00431  -0.0079  0.1019  0.7163  -2.3197   0.0000   0.2462
   7.800   0.9884   0.01081   0.00446  -0.0077  0.0998  0.7309  -2.3726   0.0000   0.2456
   8.000   1.0093   0.01093   0.00461  -0.0076  0.0974  0.7457  -2.4259   0.0000   0.2451
   8.200   1.0300   0.01105   0.00477  -0.0074  0.0952  0.7607  -2.4817   0.0000   0.2445
   8.400   1.0504   0.01119   0.00495  -0.0071  0.0928  0.7761  -2.5373   0.0000   0.2438
   8.600   1.0709   0.01132   0.00512  -0.0069  0.0905  0.7916  -2.5943   0.0000   0.2432
   8.800   1.0911   0.01146   0.00530  -0.0066  0.0879  0.8073  -2.6531   0.0000   0.2426
   9.000   1.1109   0.01163   0.00550  -0.0063  0.0852  0.8230  -2.7117   0.0000   0.2419
   9.200   1.1308   0.01179   0.00569  -0.0060  0.0826  0.8386  -2.7736   0.0000   0.2413
   9.400   1.1503   0.01196   0.00590  -0.0056  0.0796  0.8539  -2.8353   0.0000   0.2406
   9.600   1.1694   0.01215   0.00613  -0.0052  0.0767  0.8692  -2.8999   0.0000   0.2398
   9.800   1.1882   0.01235   0.00636  -0.0047  0.0735  0.8841  -2.9658   0.0000   0.2391
  10.000   1.2065   0.01258   0.00662  -0.0041  0.0701  0.8987  -3.0331   0.0000   0.2382
  10.200   1.2246   0.01281   0.00687  -0.0035  0.0667  0.9126  -3.1041   0.0000   0.2374
  10.400   1.2418   0.01308   0.00716  -0.0028  0.0629  0.9258  -3.1770   0.0000   0.2365
  10.600   1.2586   0.01336   0.00746  -0.0019  0.0590  0.9386  -3.2528   0.0000   0.2355
  10.800   1.2754   0.01365   0.00776  -0.0011  0.0553  0.9504  -3.3323   0.0000   0.2345
  11.000   1.2919   0.01400   0.00811  -0.0003  0.0512  0.9612  -3.4148   0.0000   0.2336
  11.200   1.3094   0.01435   0.00845   0.0002  0.0473  0.9703  -3.5040   0.0000   0.2328
  11.400   1.3276   0.01472   0.00881   0.0006  0.0437  0.9779  -3.5968   0.0000   0.2322
  11.600   1.3455   0.01513   0.00921   0.0009  0.0401  0.9845  -3.6941   0.0000   0.2317
  11.800   1.3634   0.01553   0.00960   0.0012  0.0368  0.9903  -3.7936   0.0000   0.2311
  12.000   1.3803   0.01593   0.00999   0.0017  0.0342  0.9962  -3.8922   0.0000   0.2304
  12.200   1.3943   0.01634   0.01039   0.0028  0.0317  1.0000  -3.9893   0.0000   0.2293
  12.400   1.4060   0.01673   0.01079   0.0043  0.0298  1.0000  -4.0812   0.0000   0.2279
  12.600   1.4180   0.01714   0.01120   0.0057  0.0279  1.0000  -4.1746   0.0000   0.2266
  12.800   1.4294   0.01761   0.01168   0.0071  0.0261  1.0000  -4.2669   0.0000   0.2253
  13.000   1.4418   0.01804   0.01212   0.0083  0.0249  1.0000  -4.3675   0.0000   0.2241
  13.200   1.4532   0.01854   0.01263   0.0095  0.0233  1.0000  -4.4673   0.0000   0.2230
  13.400   1.4638   0.01910   0.01320   0.0108  0.0218  1.0000  -4.5652   0.0000   0.2218
  13.600   1.4752   0.01964   0.01375   0.0119  0.0207  1.0000  -4.6663   0.0000   0.2207
  13.800   1.4868   0.02018   0.01432   0.0129  0.0201  1.0000  -4.7686   0.0000   0.2197
  14.000   1.4968   0.02083   0.01499   0.0141  0.0191  1.0000  -4.8666   0.0000   0.2186
  14.200   1.5064   0.02153   0.01571   0.0151  0.0181  1.0000  -4.9663   0.0000   0.2176
  14.400   1.5158   0.02227   0.01647   0.0161  0.0171  1.0000  -5.0697   0.0000   0.2166
  14.600   1.5245   0.02308   0.01730   0.0171  0.0161  1.0000  -5.1710   0.0000   0.2156
  14.800   1.5329   0.02395   0.01820   0.0179  0.0155  1.0000  -5.2718   0.0000   0.2147
  15.000   1.5413   0.02485   0.01913   0.0187  0.0151  1.0000  -5.3729   0.0000   0.2138
  15.200   1.5497   0.02579   0.02011   0.0194  0.0148  1.0000  -5.4745   0.0000   0.2130
  15.400   1.5573   0.02682   0.02118   0.0200  0.0143  1.0000  -5.5737   0.0000   0.2122
  15.600   1.5638   0.02799   0.02238   0.0206  0.0138  1.0000  -5.6687   0.0000   0.2115
  15.800   1.5689   0.02931   0.02374   0.0210  0.0131  1.0000  -5.7588   0.0000   0.2107
  16.000   1.5727   0.03082   0.02529   0.0214  0.0124  1.0000  -5.8434   0.0000   0.2101
  16.200   1.5759   0.03245   0.02696   0.0217  0.0119  1.0000  -5.9256   0.0000   0.2094
  16.400   1.5794   0.03409   0.02865   0.0218  0.0115  1.0000  -6.0147   0.0000   0.2089
  16.600   1.5823   0.03586   0.03047   0.0218  0.0113  1.0000  -6.1011   0.0000   0.2084
  16.800   1.5844   0.03778   0.03244   0.0217  0.0111  1.0000  -6.1835   0.0000   0.2080
  17.000   1.5851   0.03989   0.03461   0.0214  0.0109  1.0000  -6.2598   0.0000   0.2077
  17.200   1.5846   0.04218   0.03697   0.0211  0.0108  1.0000  -6.3296   0.0000   0.2074
  17.400   1.5825   0.04473   0.03958   0.0205  0.0106  1.0000  -6.3920   0.0000   0.2072
  17.600   1.5791   0.04751   0.04243   0.0198  0.0104  1.0000  -6.4474   0.0000   0.2070
  17.800   1.5739   0.05057   0.04556   0.0190  0.0103  1.0000  -6.4931   0.0000   0.2070
  18.000   1.5662   0.05400   0.04906   0.0180  0.0101  1.0000  -6.5261   0.0000   0.2070
  18.200   1.5564   0.05780   0.05295   0.0168  0.0099  1.0000  -6.5468   0.0000   0.2072
  18.400   1.5442   0.06200   0.05724   0.0153  0.0097  1.0000  -6.5537   0.0000   0.2074
  18.600   1.5293   0.06659   0.06192   0.0137  0.0096  1.0000  -6.5454   0.0000   0.2078
  18.800   1.5122   0.07158   0.06702   0.0119  0.0095  1.0000  -6.5235   0.0000   0.2084
  19.000   1.4930   0.07697   0.07251   0.0099  0.0094  1.0000  -6.4880   0.0000   0.2091
  19.200   1.4715   0.08270   0.07835   0.0077  0.0093  1.0000  -6.4381   0.0000   0.2099
  19.400   1.4488   0.08873   0.08449   0.0053  0.0093  1.0000  -6.3777   0.0000   0.2109
  19.600   1.4253   0.09497   0.09084   0.0028  0.0093  1.0000  -6.3101   0.0000   0.2120
  19.800   1.4010   0.10136   0.09734   0.0002  0.0093  1.0000  -6.2344   0.0000   0.2133
  20.000   1.3772   0.10781   0.10389  -0.0026  0.0093  1.0000  -6.1573   0.0000   0.2148
  20.200   1.3558   0.11397   0.11016  -0.0053  0.0092  1.0000  -6.0899   0.0000   0.2163
  20.400   1.3354   0.12001   0.11629  -0.0080  0.0092  1.0000  -6.0249   0.0000   0.2179
  20.600   1.3168   0.12586   0.12222  -0.0107  0.0091  1.0000  -5.9666   0.0000   0.2195
  20.800   1.3010   0.13137   0.12780  -0.0134  0.0090  1.0000  -5.9209   0.0000   0.2212
  21.000   1.2878   0.13649   0.13300  -0.0160  0.0089  1.0000  -5.8885   0.0000   0.2228
  21.200   1.2756   0.14148   0.13805  -0.0186  0.0088  1.0000  -5.8593   0.0000   0.2244
  21.400   1.2640   0.14640   0.14304  -0.0212  0.0086  1.0000  -5.8308   0.0000   0.2262
  21.600   1.2545   0.15101   0.14771  -0.0238  0.0085  1.0000  -5.8137   0.0000   0.2278
  21.800   1.2471   0.15531   0.15205  -0.0262  0.0083  1.0000  -5.8079   0.0000   0.2294
  22.000   1.2391   0.15980   0.15660  -0.0288  0.0081  1.0000  -5.7941   0.0000   0.2311
  22.200   1.2344   0.16369   0.16053  -0.0312  0.0079  1.0000  -5.8027   0.0000   0.2326
  22.400   1.2281   0.16794   0.16483  -0.0338  0.0078  1.0000  -5.7963   0.0000   0.2343
  22.600   1.2250   0.17159   0.16852  -0.0361  0.0077  1.0000  -5.8115   0.0000   0.2357
  22.800   1.2198   0.17565   0.17262  -0.0387  0.0076  1.0000  -5.8094   0.0000   0.2375
  23.000   1.2175   0.17916   0.17617  -0.0410  0.0074  1.0000  -5.8302   0.0000   0.2389
  23.200   1.2134   0.18306   0.18011  -0.0435  0.0073  1.0000  -5.8364   0.0000   0.2406
  23.400   1.2116   0.18654   0.18362  -0.0459  0.0072  1.0000  -5.8592   0.0000   0.2421
  23.600   1.2097   0.19006   0.18718  -0.0483  0.0070  1.0000  -5.8796   0.0000   0.2436
  23.800   1.2073   0.19373   0.19089  -0.0509  0.0069  1.0000  -5.8931   0.0000   0.2453
  24.000   1.2069   0.19699   0.19418  -0.0532  0.0068  1.0000  -5.9230   0.0000   0.2467
  24.200   1.2049   0.20061   0.19784  -0.0558  0.0067  1.0000  -5.9365   0.0000   0.2484
  24.400   1.2049   0.20381   0.20108  -0.0582  0.0066  1.0000  -5.9672   0.0000   0.2497
  24.600   1.2055   0.20689   0.20419  -0.0605  0.0066  1.0000  -6.0021   0.0000   0.2511
  24.800   1.2041   0.21043   0.20777  -0.0631  0.0065  1.0000  -6.0164   0.0000   0.2528
  25.000   1.2047   0.21354   0.21090  -0.0655  0.0064  1.0000  -6.0484   0.0000   0.2542


