xflr5 v6.47

 Calculated polar for: NACA 23015

 1 1 Reynolds number fixed          Mach number fixed         

 xtrf =   1.000 (top)        1.000 (bottom)
 Mach =   0.000     Re =     0.700 e 6     Ncrit =   1.000

  alpha     CL        CD       CDp       Cm    Top Xtr Bot Xtr   Cpmin    Chinge    XCp    
 ------- -------- --------- --------- -------- ------- ------- -------- --------- ---------
 -10.000  -0.9089   0.01664   0.00985  -0.0247  0.8372  0.0131  -6.0314   0.0000   0.2104
  -9.800  -0.8911   0.01638   0.00951  -0.0239  0.8196  0.0133  -5.8717   0.0000   0.2110
  -9.600  -0.8730   0.01614   0.00918  -0.0232  0.8021  0.0135  -5.7127   0.0000   0.2115
  -9.400  -0.8546   0.01590   0.00886  -0.0225  0.7848  0.0136  -5.5543   0.0000   0.2119
  -9.200  -0.8359   0.01567   0.00855  -0.0218  0.7675  0.0138  -5.3965   0.0000   0.2122
  -9.000  -0.8170   0.01545   0.00825  -0.0212  0.7505  0.0140  -5.2397   0.0000   0.2126
  -8.800  -0.7980   0.01524   0.00797  -0.0207  0.7337  0.0142  -5.0840   0.0000   0.2128
  -8.600  -0.7787   0.01504   0.00769  -0.0201  0.7173  0.0144  -4.9294   0.0000   0.2131
  -8.400  -0.7593   0.01484   0.00742  -0.0196  0.7011  0.0146  -4.7758   0.0000   0.2132
  -8.200  -0.7397   0.01465   0.00715  -0.0191  0.6852  0.0148  -4.6235   0.0000   0.2134
  -8.000  -0.7200   0.01446   0.00690  -0.0187  0.6696  0.0152  -4.4725   0.0000   0.2135
  -7.800  -0.7002   0.01427   0.00666  -0.0182  0.6542  0.0156  -4.3281   0.0000   0.2136
  -7.600  -0.6803   0.01409   0.00642  -0.0178  0.6390  0.0161  -4.1886   0.0000   0.2136
  -7.400  -0.6602   0.01392   0.00619  -0.0173  0.6241  0.0165  -4.0506   0.0000   0.2135
  -7.200  -0.6399   0.01376   0.00597  -0.0170  0.6094  0.0169  -3.9143   0.0000   0.2135
  -7.000  -0.6195   0.01361   0.00576  -0.0166  0.5950  0.0172  -3.7794   0.0000   0.2133
  -6.800  -0.5990   0.01347   0.00556  -0.0162  0.5806  0.0175  -3.6460   0.0000   0.2131
  -6.600  -0.5784   0.01333   0.00536  -0.0159  0.5664  0.0178  -3.5141   0.0000   0.2128
  -6.400  -0.5577   0.01320   0.00517  -0.0156  0.5523  0.0181  -3.3836   0.0000   0.2125
  -6.200  -0.5369   0.01307   0.00499  -0.0152  0.5383  0.0184  -3.2547   0.0000   0.2121
  -6.000  -0.5161   0.01295   0.00482  -0.0149  0.5243  0.0187  -3.1272   0.0000   0.2117
  -5.800  -0.4953   0.01283   0.00465  -0.0146  0.5104  0.0194  -3.0012   0.0000   0.2111
  -5.600  -0.4744   0.01272   0.00449  -0.0143  0.4963  0.0201  -2.8768   0.0000   0.2105
  -5.400  -0.4533   0.01261   0.00433  -0.0141  0.4820  0.0209  -2.7542   0.0000   0.2098
  -5.200  -0.4322   0.01252   0.00418  -0.0138  0.4673  0.0216  -2.6334   0.0000   0.2089
  -5.000  -0.4111   0.01244   0.00404  -0.0135  0.4519  0.0220  -2.5144   0.0000   0.2080
  -4.800  -0.3899   0.01238   0.00391  -0.0133  0.4349  0.0225  -2.4050   0.0000   0.2069
  -4.600  -0.3691   0.01235   0.00379  -0.0130  0.4077  0.0230  -2.2984   0.0000   0.2058
  -4.400  -0.3485   0.01237   0.00368  -0.0127  0.3729  0.0237  -2.1940   0.0000   0.2046
  -4.200  -0.3278   0.01239   0.00358  -0.0124  0.3398  0.0247  -2.0909   0.0000   0.2033
  -4.000  -0.3067   0.01237   0.00348  -0.0121  0.3167  0.0258  -1.9885   0.0000   0.2015
  -3.800  -0.2852   0.01232   0.00338  -0.0119  0.3052  0.0267  -1.8868   0.0000   0.1992
  -3.600  -0.2637   0.01226   0.00329  -0.0117  0.2947  0.0277  -1.7867   0.0000   0.1964
  -3.400  -0.2421   0.01221   0.00319  -0.0115  0.2847  0.0285  -1.6882   0.0000   0.1931
  -3.200  -0.2204   0.01216   0.00311  -0.0114  0.2761  0.0295  -1.5911   0.0000   0.1891
  -3.000  -0.1986   0.01211   0.00303  -0.0112  0.2685  0.0309  -1.5000   0.0000   0.1841
  -2.800  -0.1769   0.01206   0.00296  -0.0110  0.2609  0.0326  -1.4131   0.0000   0.1779
  -2.600  -0.1551   0.01202   0.00289  -0.0109  0.2533  0.0341  -1.3275   0.0000   0.1698
  -2.400  -0.1332   0.01198   0.00283  -0.0107  0.2470  0.0353  -1.2434   0.0000   0.1588
  -2.200  -0.1113   0.01194   0.00277  -0.0106  0.2419  0.0371  -1.1606   0.0000   0.1435
  -2.000  -0.0894   0.01190   0.00272  -0.0105  0.2364  0.0394  -1.0794   0.0000   0.1207
  -1.800  -0.0674   0.01187   0.00267  -0.0104  0.2307  0.0415  -1.0007   0.0000   0.0828
  -1.600  -0.0454   0.01185   0.00263  -0.0102  0.2259  0.0437  -0.9283   0.0000   0.0082
  -1.400  -0.0234   0.01181   0.00259  -0.0101  0.2226  0.0466  -0.8571   0.0000  -0.2088
  -1.200  -0.0013   0.01178   0.00256  -0.0100  0.2186  0.0498  -0.7872   0.0000  -7.5419
  -1.000   0.0207   0.01176   0.00253  -0.0099  0.2146  0.0531  -0.7186   0.0000   0.7428
  -0.800   0.0427   0.01174   0.00250  -0.0098  0.2107  0.0574  -0.7055   0.0000   0.4822
  -0.600   0.0648   0.01171   0.00248  -0.0097  0.2077  0.0623  -0.7332   0.0000   0.3991
  -0.400   0.0868   0.01169   0.00246  -0.0096  0.2052  0.0682  -0.7611   0.0000   0.3582
  -0.200   0.1089   0.01167   0.00245  -0.0095  0.2023  0.0758  -0.7892   0.0000   0.3339
   0.000   0.1308   0.01164   0.00244  -0.0094  0.1990  0.0857  -0.8174   0.0000   0.3177
   0.200   0.1523   0.01156   0.00242  -0.0092  0.1959  0.1118  -0.8464   0.0000   0.3060
   0.400   0.1671   0.01065   0.00223  -0.0082  0.1940  0.3383  -0.8704   0.0000   0.2942
   0.600   0.1875   0.01043   0.00221  -0.0079  0.1922  0.3968  -0.8991   0.0000   0.2868
   0.800   0.2085   0.01031   0.00222  -0.0077  0.1897  0.4377  -0.9286   0.0000   0.2812
   1.000   0.2305   0.01031   0.00224  -0.0076  0.1866  0.4514  -0.9591   0.0000   0.2770
   1.200   0.2527   0.01035   0.00227  -0.0075  0.1839  0.4593  -0.9905   0.0000   0.2737
   1.400   0.2751   0.01038   0.00230  -0.0075  0.1821  0.4682  -1.0229   0.0000   0.2709
   1.600   0.2973   0.01040   0.00234  -0.0074  0.1803  0.4769  -1.0555   0.0000   0.2685
   1.800   0.3196   0.01043   0.00238  -0.0074  0.1778  0.4860  -1.0884   0.0000   0.2665
   2.000   0.3417   0.01048   0.00243  -0.0073  0.1750  0.4955  -1.1213   0.0000   0.2646
   2.200   0.3638   0.01052   0.00248  -0.0072  0.1727  0.5050  -1.1550   0.0000   0.2630
   2.400   0.3859   0.01055   0.00253  -0.0072  0.1711  0.5150  -1.1899   0.0000   0.2615
   2.600   0.4081   0.01059   0.00258  -0.0071  0.1693  0.5253  -1.2249   0.0000   0.2602
   2.800   0.4301   0.01063   0.00264  -0.0071  0.1670  0.5356  -1.2602   0.0000   0.2590
   3.000   0.4520   0.01069   0.00271  -0.0070  0.1644  0.5463  -1.2956   0.0000   0.2579
   3.200   0.4740   0.01074   0.00278  -0.0069  0.1623  0.5571  -1.3318   0.0000   0.2568
   3.400   0.4959   0.01078   0.00285  -0.0068  0.1607  0.5684  -1.3692   0.0000   0.2559
   3.600   0.5179   0.01083   0.00293  -0.0067  0.1590  0.5798  -1.4069   0.0000   0.2550
   3.800   0.5397   0.01089   0.00301  -0.0067  0.1567  0.5913  -1.4447   0.0000   0.2541
   4.000   0.5613   0.01096   0.00310  -0.0065  0.1542  0.6032  -1.4827   0.0000   0.2533
   4.200   0.5831   0.01102   0.00319  -0.0064  0.1523  0.6154  -1.5218   0.0000   0.2525
   4.400   0.6048   0.01108   0.00328  -0.0063  0.1509  0.6278  -1.5619   0.0000   0.2518
   4.600   0.6264   0.01114   0.00338  -0.0062  0.1491  0.6405  -1.6022   0.0000   0.2510
   4.800   0.6479   0.01122   0.00349  -0.0061  0.1467  0.6534  -1.6427   0.0000   0.2503
   5.000   0.6692   0.01130   0.00360  -0.0059  0.1444  0.6665  -1.6833   0.0000   0.2496
   5.200   0.6907   0.01137   0.00371  -0.0058  0.1427  0.6798  -1.7258   0.0000   0.2490
   5.400   0.7121   0.01144   0.00383  -0.0057  0.1412  0.6934  -1.7688   0.0000   0.2483
   5.600   0.7333   0.01153   0.00395  -0.0055  0.1393  0.7073  -1.8119   0.0000   0.2476
   5.800   0.7544   0.01162   0.00409  -0.0053  0.1369  0.7216  -1.8551   0.0000   0.2470
   6.000   0.7753   0.01172   0.00422  -0.0051  0.1348  0.7359  -1.8994   0.0000   0.2463
   6.200   0.7963   0.01180   0.00436  -0.0049  0.1333  0.7504  -1.9451   0.0000   0.2457
   6.400   0.8172   0.01189   0.00450  -0.0047  0.1317  0.7651  -1.9909   0.0000   0.2450
   6.600   0.8379   0.01200   0.00466  -0.0044  0.1294  0.7800  -2.0368   0.0000   0.2444
   6.800   0.8583   0.01212   0.00482  -0.0041  0.1271  0.7950  -2.0837   0.0000   0.2437
   7.000   0.8787   0.01223   0.00498  -0.0038  0.1254  0.8099  -2.1320   0.0000   0.2430
   7.200   0.8991   0.01234   0.00514  -0.0035  0.1238  0.8249  -2.1805   0.0000   0.2423
   7.400   0.9193   0.01246   0.00532  -0.0032  0.1217  0.8396  -2.2291   0.0000   0.2416
   7.600   0.9392   0.01260   0.00551  -0.0028  0.1193  0.8541  -2.2794   0.0000   0.2409
   7.800   0.9588   0.01275   0.00570  -0.0023  0.1174  0.8683  -2.3302   0.0000   0.2401
   8.000   0.9786   0.01289   0.00589  -0.0019  0.1158  0.8821  -2.3815   0.0000   0.2394
   8.200   0.9981   0.01305   0.00609  -0.0014  0.1137  0.8954  -2.4341   0.0000   0.2386
   8.400   1.0175   0.01323   0.00630  -0.0010  0.1113  0.9080  -2.4880   0.0000   0.2379
   8.600   1.0369   0.01342   0.00652  -0.0005  0.1092  0.9198  -2.5422   0.0000   0.2372
   8.800   1.0567   0.01361   0.00674  -0.0002  0.1074  0.9306  -2.5992   0.0000   0.2366
   9.000   1.0768   0.01382   0.00697   0.0001  0.1050  0.9404  -2.6577   0.0000   0.2361
   9.200   1.0973   0.01405   0.00722   0.0002  0.1025  0.9491  -2.7182   0.0000   0.2357
   9.400   1.1180   0.01430   0.00747   0.0003  0.1003  0.9569  -2.7814   0.0000   0.2354
   9.600   1.1390   0.01454   0.00773   0.0002  0.0979  0.9638  -2.8467   0.0000   0.2351
   9.800   1.1600   0.01481   0.00801   0.0002  0.0951  0.9699  -2.9144   0.0000   0.2349
  10.000   1.1806   0.01510   0.00829   0.0001  0.0926  0.9755  -2.9846   0.0000   0.2346
  10.200   1.2009   0.01538   0.00859   0.0002  0.0899  0.9809  -3.0572   0.0000   0.2343
  10.400   1.2207   0.01570   0.00890   0.0003  0.0868  0.9860  -3.1325   0.0000   0.2339
  10.600   1.2400   0.01602   0.00923   0.0004  0.0840  0.9909  -3.2110   0.0000   0.2335
  10.800   1.2588   0.01636   0.00957   0.0006  0.0807  0.9958  -3.2927   0.0000   0.2330
  11.000   1.2761   0.01672   0.00993   0.0011  0.0775  1.0000  -3.3759   0.0000   0.2324
  11.200   1.2902   0.01707   0.01029   0.0023  0.0742  1.0000  -3.4547   0.0000   0.2312
  11.400   1.3025   0.01746   0.01067   0.0037  0.0709  1.0000  -3.5333   0.0000   0.2297
  11.600   1.3143   0.01785   0.01106   0.0052  0.0675  1.0000  -3.6114   0.0000   0.2283
  11.800   1.3253   0.01830   0.01152   0.0068  0.0641  1.0000  -3.6923   0.0000   0.2268
  12.000   1.3367   0.01877   0.01199   0.0082  0.0606  1.0000  -3.7751   0.0000   0.2254
  12.200   1.3474   0.01930   0.01252   0.0096  0.0572  1.0000  -3.8564   0.0000   0.2241
  12.400   1.3581   0.01984   0.01307   0.0110  0.0538  1.0000  -3.9422   0.0000   0.2228
  12.600   1.3683   0.02044   0.01368   0.0123  0.0506  1.0000  -4.0282   0.0000   0.2215
  12.800   1.3781   0.02108   0.01433   0.0136  0.0475  1.0000  -4.1139   0.0000   0.2203
  13.000   1.3877   0.02176   0.01503   0.0148  0.0448  1.0000  -4.1992   0.0000   0.2191
  13.200   1.3966   0.02251   0.01579   0.0160  0.0419  1.0000  -4.2832   0.0000   0.2180
  13.400   1.4053   0.02329   0.01659   0.0171  0.0397  1.0000  -4.3722   0.0000   0.2169
  13.600   1.4137   0.02412   0.01745   0.0181  0.0374  1.0000  -4.4606   0.0000   0.2158
  13.800   1.4210   0.02507   0.01842   0.0191  0.0353  1.0000  -4.5458   0.0000   0.2148
  14.000   1.4287   0.02603   0.01941   0.0200  0.0335  1.0000  -4.6324   0.0000   0.2138
  14.200   1.4352   0.02711   0.02053   0.0208  0.0317  1.0000  -4.7155   0.0000   0.2129
  14.400   1.4413   0.02828   0.02174   0.0215  0.0302  1.0000  -4.7970   0.0000   0.2121
  14.600   1.4471   0.02951   0.02302   0.0220  0.0288  1.0000  -4.8782   0.0000   0.2113
  14.800   1.4522   0.03086   0.02442   0.0225  0.0276  1.0000  -4.9609   0.0000   0.2106
  15.000   1.4558   0.03240   0.02601   0.0229  0.0264  1.0000  -5.0391   0.0000   0.2099
  15.200   1.4594   0.03402   0.02767   0.0231  0.0253  1.0000  -5.1170   0.0000   0.2093
  15.400   1.4619   0.03580   0.02952   0.0232  0.0242  1.0000  -5.1902   0.0000   0.2088
  15.600   1.4632   0.03777   0.03155   0.0231  0.0232  1.0000  -5.2588   0.0000   0.2084
  15.800   1.4636   0.03992   0.03376   0.0229  0.0225  1.0000  -5.3228   0.0000   0.2081
  16.000   1.4634   0.04220   0.03611   0.0225  0.0219  1.0000  -5.3840   0.0000   0.2078
  16.200   1.4621   0.04467   0.03865   0.0220  0.0214  1.0000  -5.4400   0.0000   0.2076
  16.400   1.4590   0.04742   0.04148   0.0214  0.0208  1.0000  -5.4879   0.0000   0.2076
  16.600   1.4541   0.05047   0.04462   0.0205  0.0202  1.0000  -5.5266   0.0000   0.2076
  16.800   1.4471   0.05386   0.04809   0.0195  0.0196  1.0000  -5.5550   0.0000   0.2077
  17.000   1.4380   0.05760   0.05193   0.0182  0.0191  1.0000  -5.5731   0.0000   0.2079
  17.200   1.4270   0.06170   0.05613   0.0168  0.0187  1.0000  -5.5802   0.0000   0.2083
  17.400   1.4140   0.06613   0.06065   0.0152  0.0184  1.0000  -5.5767   0.0000   0.2088
  17.600   1.3998   0.07082   0.06545   0.0134  0.0181  1.0000  -5.5653   0.0000   0.2094
  17.800   1.3838   0.07586   0.07061   0.0115  0.0179  1.0000  -5.5428   0.0000   0.2102
  18.000   1.3658   0.08122   0.07607   0.0094  0.0177  1.0000  -5.5095   0.0000   0.2111
  18.200   1.3468   0.08683   0.08180   0.0071  0.0176  1.0000  -5.4683   0.0000   0.2121
  18.400   1.3271   0.09261   0.08769   0.0048  0.0175  1.0000  -5.4211   0.0000   0.2133
  18.600   1.3070   0.09851   0.09370   0.0023  0.0174  1.0000  -5.3686   0.0000   0.2146
  18.800   1.2878   0.10434   0.09964  -0.0001  0.0172  1.0000  -5.3176   0.0000   0.2160
  19.000   1.2696   0.11011   0.10551  -0.0026  0.0171  1.0000  -5.2688   0.0000   0.2174
  19.200   1.2532   0.11565   0.11114  -0.0051  0.0169  1.0000  -5.2270   0.0000   0.2190
  19.400   1.2382   0.12098   0.11655  -0.0075  0.0167  1.0000  -5.1903   0.0000   0.2205
  19.600   1.2248   0.12613   0.12178  -0.0099  0.0165  1.0000  -5.1599   0.0000   0.2221
  19.800   1.2129   0.13109   0.12681  -0.0123  0.0163  1.0000  -5.1358   0.0000   0.2236
  20.000   1.2027   0.13584   0.13163  -0.0147  0.0161  1.0000  -5.1183   0.0000   0.2252
  20.200   1.1941   0.14031   0.13616  -0.0170  0.0158  1.0000  -5.1090   0.0000   0.2268
  20.400   1.1861   0.14471   0.14063  -0.0193  0.0156  1.0000  -5.1009   0.0000   0.2283
  20.600   1.1788   0.14904   0.14501  -0.0216  0.0153  1.0000  -5.0947   0.0000   0.2299
  20.800   1.1732   0.15310   0.14912  -0.0238  0.0150  1.0000  -5.0976   0.0000   0.2315
  21.000   1.1679   0.15717   0.15324  -0.0261  0.0148  1.0000  -5.1001   0.0000   0.2330
  21.200   1.1645   0.16090   0.15702  -0.0283  0.0144  1.0000  -5.1135   0.0000   0.2345
  21.400   1.1603   0.16483   0.16099  -0.0306  0.0141  1.0000  -5.1195   0.0000   0.2361
  21.600   1.1578   0.16845   0.16466  -0.0328  0.0137  1.0000  -5.1353   0.0000   0.2376
  21.800   1.1544   0.17226   0.16851  -0.0352  0.0132  1.0000  -5.1434   0.0000   0.2392
  22.000   1.1521   0.17586   0.17215  -0.0375  0.0128  1.0000  -5.1578   0.0000   0.2408
  22.200   1.1496   0.17952   0.17584  -0.0398  0.0124  1.0000  -5.1693   0.0000   0.2424
  22.400   1.1476   0.18313   0.17949  -0.0422  0.0121  1.0000  -5.1820   0.0000   0.2440
  22.600   1.1469   0.18647   0.18287  -0.0444  0.0118  1.0000  -5.2041   0.0000   0.2455
  22.800   1.1460   0.18990   0.18634  -0.0467  0.0116  1.0000  -5.2222   0.0000   0.2470
  23.000   1.1464   0.19307   0.18955  -0.0489  0.0114  1.0000  -5.2495   0.0000   0.2484
  23.200   1.1468   0.19623   0.19274  -0.0511  0.0112  1.0000  -5.2764   0.0000   0.2498
  23.400   1.1467   0.19955   0.19610  -0.0535  0.0110  1.0000  -5.2965   0.0000   0.2513
  23.600   1.1477   0.20263   0.19922  -0.0557  0.0108  1.0000  -5.3255   0.0000   0.2527
  23.800   1.1484   0.20578   0.20240  -0.0580  0.0106  1.0000  -5.3556   0.0000   0.2541
  24.000   1.1486   0.20905   0.20571  -0.0604  0.0103  1.0000  -5.3799   0.0000   0.2557
  24.200   1.1495   0.21218   0.20887  -0.0628  0.0101  1.0000  -5.4095   0.0000   0.2572
  24.400   1.1499   0.21545   0.21218  -0.0652  0.0098  1.0000  -5.4322   0.0000   0.2587
  24.600   1.1500   0.21881   0.21556  -0.0677  0.0094  1.0000  -5.4507   0.0000   0.2604
  24.800   1.1507   0.22204   0.21883  -0.0702  0.0092  1.0000  -5.4737   0.0000   0.2620
  25.000   1.1518   0.22515   0.22197  -0.0726  0.0089  1.0000  -5.4994   0.0000   0.2635


