xflr5 v6.47

 Calculated polar for: NACA 23015

 1 1 Reynolds number fixed          Mach number fixed         

 xtrf =   1.000 (top)        1.000 (bottom)
 Mach =   0.000     Re =     0.200 e 6     Ncrit =   1.000

  alpha     CL        CD       CDp       Cm    Top Xtr Bot Xtr   Cpmin    Chinge    XCp    
 ------- -------- --------- --------- -------- ------- ------- -------- --------- ---------
 -10.000  -0.8600   0.02561   0.01764  -0.0303  0.9692  0.0169  -5.6027   0.0000   0.2021
  -9.800  -0.8420   0.02498   0.01693  -0.0300  0.9605  0.0172  -5.4586   0.0000   0.2019
  -9.600  -0.8236   0.02437   0.01624  -0.0298  0.9514  0.0174  -5.3138   0.0000   0.2016
  -9.400  -0.8046   0.02378   0.01558  -0.0295  0.9418  0.0177  -5.1683   0.0000   0.2012
  -9.200  -0.7853   0.02322   0.01494  -0.0293  0.9317  0.0179  -5.0224   0.0000   0.2007
  -9.000  -0.7657   0.02269   0.01433  -0.0292  0.9208  0.0182  -4.8767   0.0000   0.2001
  -8.800  -0.7460   0.02218   0.01375  -0.0289  0.9093  0.0185  -4.7311   0.0000   0.1996
  -8.600  -0.7262   0.02172   0.01323  -0.0287  0.8968  0.0189  -4.5837   0.0000   0.1990
  -8.400  -0.7066   0.02127   0.01273  -0.0284  0.8836  0.0194  -4.4390   0.0000   0.1985
  -8.200  -0.6874   0.02085   0.01224  -0.0280  0.8695  0.0200  -4.2973   0.0000   0.1981
  -8.000  -0.6684   0.02045   0.01176  -0.0274  0.8547  0.0205  -4.1597   0.0000   0.1979
  -7.800  -0.6497   0.02007   0.01129  -0.0268  0.8393  0.0211  -4.0333   0.0000   0.1978
  -7.600  -0.6310   0.01970   0.01083  -0.0262  0.8235  0.0215  -3.9084   0.0000   0.1977
  -7.400  -0.6123   0.01936   0.01040  -0.0256  0.8074  0.0220  -3.7851   0.0000   0.1976
  -7.200  -0.5936   0.01904   0.00998  -0.0249  0.7911  0.0223  -3.6631   0.0000   0.1976
  -7.000  -0.5750   0.01873   0.00960  -0.0242  0.7746  0.0227  -3.5410   0.0000   0.1975
  -6.800  -0.5564   0.01845   0.00923  -0.0235  0.7582  0.0232  -3.4198   0.0000   0.1974
  -6.600  -0.5376   0.01818   0.00887  -0.0229  0.7417  0.0239  -3.2998   0.0000   0.1973
  -6.400  -0.5188   0.01793   0.00853  -0.0222  0.7253  0.0248  -3.1814   0.0000   0.1972
  -6.200  -0.4999   0.01769   0.00820  -0.0215  0.7090  0.0256  -3.0645   0.0000   0.1969
  -6.000  -0.4808   0.01746   0.00788  -0.0209  0.6928  0.0263  -2.9489   0.0000   0.1966
  -5.800  -0.4617   0.01725   0.00758  -0.0203  0.6767  0.0270  -2.8337   0.0000   0.1962
  -5.600  -0.4424   0.01704   0.00729  -0.0197  0.6608  0.0276  -2.7199   0.0000   0.1957
  -5.400  -0.4230   0.01685   0.00701  -0.0191  0.6450  0.0284  -2.6073   0.0000   0.1951
  -5.200  -0.4035   0.01668   0.00675  -0.0186  0.6294  0.0294  -2.4959   0.0000   0.1943
  -5.000  -0.3839   0.01651   0.00650  -0.0180  0.6138  0.0305  -2.3915   0.0000   0.1934
  -4.800  -0.3642   0.01635   0.00626  -0.0175  0.5983  0.0316  -2.2902   0.0000   0.1923
  -4.600  -0.3444   0.01620   0.00603  -0.0170  0.5828  0.0327  -2.1901   0.0000   0.1910
  -4.400  -0.3244   0.01607   0.00581  -0.0166  0.5672  0.0339  -2.0914   0.0000   0.1894
  -4.200  -0.3044   0.01595   0.00561  -0.0161  0.5515  0.0352  -1.9939   0.0000   0.1876
  -4.000  -0.2843   0.01583   0.00542  -0.0156  0.5355  0.0366  -1.8974   0.0000   0.1854
  -3.800  -0.2643   0.01573   0.00523  -0.0152  0.5189  0.0383  -1.8022   0.0000   0.1829
  -3.600  -0.2441   0.01565   0.00505  -0.0148  0.5015  0.0399  -1.7086   0.0000   0.1798
  -3.400  -0.2240   0.01558   0.00489  -0.0143  0.4825  0.0417  -1.6163   0.0000   0.1762
  -3.200  -0.2040   0.01554   0.00474  -0.0139  0.4594  0.0438  -1.5279   0.0000   0.1721
  -3.000  -0.1841   0.01553   0.00461  -0.0134  0.4326  0.0460  -1.4458   0.0000   0.1671
  -2.800  -0.1642   0.01553   0.00448  -0.0129  0.4056  0.0485  -1.3648   0.0000   0.1609
  -2.600  -0.1441   0.01553   0.00436  -0.0125  0.3814  0.0514  -1.2848   0.0000   0.1525
  -2.400  -0.1238   0.01552   0.00425  -0.0121  0.3616  0.0544  -1.2056   0.0000   0.1408
  -2.000  -0.0825   0.01545   0.00406  -0.0115  0.3335  0.0625  -1.0499   0.0000   0.0980
  -1.800  -0.0618   0.01542   0.00397  -0.0112  0.3216  0.0675  -0.9780   0.0000   0.0546
  -1.600  -0.0410   0.01538   0.00389  -0.0109  0.3106  0.0738  -0.9089   0.0000  -0.0331
  -1.400  -0.0202   0.01533   0.00382  -0.0106  0.3009  0.0819  -0.8410   0.0000  -0.3019
  -1.200   0.0005   0.01528   0.00375  -0.0103  0.2914  0.0929  -0.7744   0.0000  22.3866
  -1.000   0.0205   0.01514   0.00367  -0.0099  0.2826  0.1190  -0.7101   0.0000   0.7451
  -0.800   0.0314   0.01396   0.00341  -0.0084  0.2761  0.3560  -0.6949   0.0000   0.5224
  -0.600   0.0497   0.01370   0.00337  -0.0077  0.2691  0.4194  -0.7199   0.0000   0.4053
  -0.400   0.0686   0.01353   0.00336  -0.0071  0.2622  0.4697  -0.7454   0.0000   0.3510
  -0.200   0.0886   0.01345   0.00336  -0.0066  0.2558  0.5014  -0.7718   0.0000   0.3210
   0.000   0.1097   0.01347   0.00337  -0.0063  0.2499  0.5155  -0.7991   0.0000   0.3032
   0.200   0.1311   0.01350   0.00338  -0.0061  0.2444  0.5256  -0.8270   0.0000   0.2915
   0.400   0.1523   0.01354   0.00340  -0.0058  0.2392  0.5360  -0.8561   0.0000   0.2830
   0.600   0.1737   0.01358   0.00342  -0.0056  0.2345  0.5465  -0.8853   0.0000   0.2766
   0.800   0.1950   0.01362   0.00345  -0.0053  0.2301  0.5576  -0.9148   0.0000   0.2715
   1.000   0.2162   0.01366   0.00349  -0.0051  0.2260  0.5689  -0.9443   0.0000   0.2674
   1.200   0.2375   0.01370   0.00354  -0.0048  0.2221  0.5804  -0.9742   0.0000   0.2640
   1.400   0.2587   0.01375   0.00359  -0.0046  0.2184  0.5923  -1.0054   0.0000   0.2612
   1.600   0.2799   0.01381   0.00365  -0.0043  0.2151  0.6043  -1.0368   0.0000   0.2587
   1.800   0.3011   0.01386   0.00372  -0.0041  0.2119  0.6167  -1.0684   0.0000   0.2566
   2.000   0.3222   0.01392   0.00379  -0.0038  0.2086  0.6294  -1.1002   0.0000   0.2547
   2.200   0.3432   0.01398   0.00388  -0.0035  0.2056  0.6422  -1.1321   0.0000   0.2530
   2.400   0.3643   0.01404   0.00397  -0.0032  0.2029  0.6553  -1.1656   0.0000   0.2515
   2.600   0.3853   0.01411   0.00406  -0.0029  0.2002  0.6685  -1.1993   0.0000   0.2501
   2.800   0.4063   0.01418   0.00416  -0.0026  0.1974  0.6820  -1.2331   0.0000   0.2488
   3.000   0.4271   0.01427   0.00427  -0.0023  0.1946  0.6957  -1.2672   0.0000   0.2476
   3.200   0.4480   0.01435   0.00439  -0.0020  0.1922  0.7094  -1.3014   0.0000   0.2465
   3.400   0.4689   0.01443   0.00452  -0.0017  0.1898  0.7234  -1.3373   0.0000   0.2455
   3.600   0.4898   0.01453   0.00465  -0.0014  0.1874  0.7375  -1.3734   0.0000   0.2445
   3.800   0.5105   0.01463   0.00479  -0.0011  0.1849  0.7516  -1.4098   0.0000   0.2436
   4.000   0.5313   0.01474   0.00493  -0.0007  0.1825  0.7657  -1.4464   0.0000   0.2428
   4.200   0.5522   0.01485   0.00509  -0.0004  0.1802  0.7798  -1.4833   0.0000   0.2420
   4.400   0.5731   0.01498   0.00525  -0.0001  0.1780  0.7938  -1.5221   0.0000   0.2413
   4.600   0.5941   0.01511   0.00542   0.0001  0.1758  0.8077  -1.5612   0.0000   0.2406
   4.800   0.6150   0.01526   0.00560   0.0004  0.1735  0.8213  -1.6006   0.0000   0.2401
   5.000   0.6363   0.01540   0.00579   0.0006  0.1713  0.8346  -1.6405   0.0000   0.2396
   5.200   0.6577   0.01556   0.00598   0.0007  0.1691  0.8475  -1.6815   0.0000   0.2392
   5.400   0.6791   0.01573   0.00618   0.0009  0.1669  0.8600  -1.7239   0.0000   0.2389
   5.600   0.7006   0.01591   0.00639   0.0010  0.1648  0.8719  -1.7666   0.0000   0.2386
   5.800   0.7223   0.01610   0.00660   0.0010  0.1627  0.8832  -1.8098   0.0000   0.2384
   6.000   0.7443   0.01629   0.00682   0.0010  0.1605  0.8938  -1.8538   0.0000   0.2383
   6.200   0.7663   0.01649   0.00705   0.0009  0.1583  0.9039  -1.8998   0.0000   0.2382
   6.400   0.7883   0.01670   0.00728   0.0008  0.1563  0.9135  -1.9461   0.0000   0.2381
   6.600   0.8105   0.01692   0.00752   0.0006  0.1542  0.9222  -1.9930   0.0000   0.2382
   6.800   0.8327   0.01715   0.00777   0.0005  0.1521  0.9304  -2.0406   0.0000   0.2382
   7.000   0.8547   0.01737   0.00803   0.0003  0.1499  0.9382  -2.0899   0.0000   0.2381
   7.200   0.8762   0.01761   0.00828   0.0003  0.1479  0.9457  -2.1390   0.0000   0.2380
   7.400   0.8979   0.01786   0.00855   0.0001  0.1458  0.9527  -2.1886   0.0000   0.2379
   7.600   0.9191   0.01812   0.00884   0.0001  0.1437  0.9594  -2.2395   0.0000   0.2378
   7.800   0.9401   0.01838   0.00912   0.0000  0.1417  0.9658  -2.2911   0.0000   0.2376
   8.000   0.9608   0.01864   0.00941   0.0001  0.1396  0.9721  -2.3427   0.0000   0.2373
   8.200   0.9814   0.01892   0.00972   0.0001  0.1375  0.9780  -2.3957   0.0000   0.2370
   8.400   1.0015   0.01922   0.01003   0.0001  0.1355  0.9838  -2.4496   0.0000   0.2367
   8.600   1.0216   0.01951   0.01036   0.0002  0.1335  0.9894  -2.5037   0.0000   0.2364
   8.800   1.0414   0.01981   0.01070   0.0003  0.1314  0.9949  -2.5596   0.0000   0.2360
   9.000   1.0605   0.02012   0.01104   0.0005  0.1293  1.0000  -2.6157   0.0000   0.2356
   9.200   1.0751   0.02043   0.01137   0.0017  0.1274  1.0000  -2.6660   0.0000   0.2342
   9.400   1.0896   0.02074   0.01172   0.0028  0.1255  1.0000  -2.7184   0.0000   0.2329
   9.600   1.1042   0.02106   0.01207   0.0039  0.1236  1.0000  -2.7713   0.0000   0.2317
   9.800   1.1185   0.02139   0.01244   0.0050  0.1216  1.0000  -2.8266   0.0000   0.2304
  10.000   1.1325   0.02175   0.01283   0.0062  0.1196  1.0000  -2.8819   0.0000   0.2292
  10.200   1.1458   0.02212   0.01323   0.0074  0.1176  1.0000  -2.9392   0.0000   0.2279
  10.400   1.1585   0.02249   0.01365   0.0087  0.1157  1.0000  -2.9969   0.0000   0.2265
  10.600   1.1706   0.02288   0.01408   0.0101  0.1137  1.0000  -3.0557   0.0000   0.2251
  10.800   1.1823   0.02331   0.01455   0.0115  0.1117  1.0000  -3.1170   0.0000   0.2237
  11.000   1.1937   0.02377   0.01505   0.0128  0.1096  1.0000  -3.1796   0.0000   0.2223
  11.200   1.2053   0.02425   0.01557   0.0141  0.1076  1.0000  -3.2452   0.0000   0.2210
  11.400   1.2169   0.02476   0.01613   0.0152  0.1055  1.0000  -3.3139   0.0000   0.2198
  11.600   1.2279   0.02532   0.01674   0.0164  0.1032  1.0000  -3.3827   0.0000   0.2187
  11.800   1.2382   0.02593   0.01739   0.0176  0.1010  1.0000  -3.4535   0.0000   0.2175
  12.000   1.2488   0.02655   0.01807   0.0186  0.0989  1.0000  -3.5263   0.0000   0.2164
  12.200   1.2588   0.02724   0.01881   0.0197  0.0965  1.0000  -3.5988   0.0000   0.2154
  12.400   1.2680   0.02800   0.01962   0.0207  0.0941  1.0000  -3.6730   0.0000   0.2143
  12.600   1.2768   0.02881   0.02049   0.0216  0.0918  1.0000  -3.7464   0.0000   0.2133
  12.800   1.2853   0.02967   0.02141   0.0225  0.0894  1.0000  -3.8193   0.0000   0.2124
  13.000   1.2928   0.03064   0.02244   0.0233  0.0868  1.0000  -3.8920   0.0000   0.2114
  13.200   1.2996   0.03170   0.02355   0.0241  0.0844  1.0000  -3.9649   0.0000   0.2105
  13.400   1.3061   0.03283   0.02474   0.0247  0.0818  1.0000  -4.0369   0.0000   0.2097
  13.600   1.3112   0.03411   0.02608   0.0253  0.0792  1.0000  -4.1045   0.0000   0.2089
  13.800   1.3157   0.03550   0.02754   0.0258  0.0768  1.0000  -4.1702   0.0000   0.2082
  14.000   1.3196   0.03700   0.02911   0.0261  0.0742  1.0000  -4.2339   0.0000   0.2076
  14.200   1.3217   0.03873   0.03090   0.0264  0.0717  1.0000  -4.2956   0.0000   0.2070
  14.400   1.3235   0.04057   0.03281   0.0264  0.0693  1.0000  -4.3554   0.0000   0.2065
  14.600   1.3241   0.04259   0.03492   0.0263  0.0670  1.0000  -4.4107   0.0000   0.2061
  14.800   1.3228   0.04491   0.03730   0.0260  0.0647  1.0000  -4.4580   0.0000   0.2059
  15.000   1.3210   0.04736   0.03984   0.0256  0.0626  1.0000  -4.5030   0.0000   0.2057
  15.200   1.3176   0.05008   0.04265   0.0250  0.0606  1.0000  -4.5409   0.0000   0.2056
  15.400   1.3122   0.05314   0.04581   0.0241  0.0588  1.0000  -4.5694   0.0000   0.2057
  15.600   1.3054   0.05646   0.04923   0.0230  0.0571  1.0000  -4.5915   0.0000   0.2059
  15.800   1.2973   0.06006   0.05294   0.0218  0.0555  1.0000  -4.6066   0.0000   0.2063
  16.000   1.2869   0.06407   0.05706   0.0203  0.0541  1.0000  -4.6106   0.0000   0.2068
  16.200   1.2741   0.06853   0.06163   0.0185  0.0529  1.0000  -4.6026   0.0000   0.2075
  16.400   1.2592   0.07343   0.06666   0.0165  0.0519  1.0000  -4.5827   0.0000   0.2084
  16.600   1.2432   0.07860   0.07195   0.0143  0.0509  1.0000  -4.5564   0.0000   0.2095
  16.800   1.2250   0.08423   0.07771   0.0118  0.0501  1.0000  -4.5171   0.0000   0.2109
  17.000   1.2048   0.09028   0.08389   0.0092  0.0493  1.0000  -4.4655   0.0000   0.2124
  17.200   1.1832   0.09666   0.09041   0.0063  0.0486  1.0000  -4.4027   0.0000   0.2142
  17.400   1.1609   0.10326   0.09713   0.0034  0.0479  1.0000  -4.3330   0.0000   0.2162
  17.600   1.1392   0.10990   0.10389   0.0003  0.0472  1.0000  -4.2615   0.0000   0.2184
  17.800   1.1184   0.11647   0.11056  -0.0027  0.0464  1.0000  -4.1905   0.0000   0.2207
  18.000   1.1010   0.12251   0.11670  -0.0056  0.0455  1.0000  -4.1338   0.0000   0.2229
  18.200   1.0868   0.12809   0.12237  -0.0083  0.0445  1.0000  -4.0905   0.0000   0.2251
  18.400   1.0746   0.13341   0.12775  -0.0109  0.0433  1.0000  -4.0545   0.0000   0.2272
  18.600   1.0638   0.13851   0.13293  -0.0135  0.0421  1.0000  -4.0236   0.0000   0.2294
  18.800   1.0541   0.14346   0.13794  -0.0160  0.0409  1.0000  -3.9960   0.0000   0.2315
  19.000   1.0473   0.14794   0.14248  -0.0184  0.0397  1.0000  -3.9823   0.0000   0.2335
  19.200   1.0412   0.15232   0.14692  -0.0207  0.0384  1.0000  -3.9708   0.0000   0.2354
  19.400   1.0360   0.15659   0.15124  -0.0231  0.0371  1.0000  -3.9619   0.0000   0.2374
  19.600   1.0313   0.16080   0.15549  -0.0254  0.0360  1.0000  -3.9545   0.0000   0.2394
  19.800   1.0282   0.16474   0.15948  -0.0277  0.0349  1.0000  -3.9544   0.0000   0.2413
  20.000   1.0258   0.16857   0.16336  -0.0299  0.0337  1.0000  -3.9566   0.0000   0.2431
  20.200   1.0233   0.17243   0.16726  -0.0322  0.0325  1.0000  -3.9567   0.0000   0.2450
  20.400   1.0212   0.17623   0.17110  -0.0345  0.0313  1.0000  -3.9580   0.0000   0.2469
  20.600   1.0199   0.17990   0.17480  -0.0368  0.0303  1.0000  -3.9625   0.0000   0.2488
  20.800   1.0194   0.18345   0.17840  -0.0390  0.0293  1.0000  -3.9701   0.0000   0.2506
  21.000   1.0190   0.18699   0.18198  -0.0412  0.0283  1.0000  -3.9774   0.0000   0.2524
  21.200   1.0186   0.19056   0.18559  -0.0435  0.0273  1.0000  -3.9826   0.0000   0.2542
  21.400   1.0185   0.19408   0.18914  -0.0458  0.0264  1.0000  -3.9915   0.0000   0.2560
  21.600   1.0191   0.19749   0.19260  -0.0481  0.0255  1.0000  -4.0042   0.0000   0.2578
  21.800   1.0199   0.20087   0.19603  -0.0503  0.0246  1.0000  -4.0176   0.0000   0.2596
  22.000   1.0205   0.20430   0.19950  -0.0526  0.0237  1.0000  -4.0280   0.0000   0.2614
  22.200   1.0215   0.20769   0.20292  -0.0549  0.0229  1.0000  -4.0389   0.0000   0.2632
  22.400   1.0226   0.21105   0.20631  -0.0573  0.0222  1.0000  -4.0504   0.0000   0.2649
  22.600   1.0239   0.21439   0.20970  -0.0596  0.0214  1.0000  -4.0603   0.0000   0.2667
  22.800   1.0253   0.21773   0.21308  -0.0619  0.0206  1.0000  -4.0693   0.0000   0.2685
  23.000   1.0266   0.22111   0.21650  -0.0643  0.0199  1.0000  -4.0756   0.0000   0.2703
  23.200   1.0281   0.22444   0.21986  -0.0667  0.0192  1.0000  -4.0827   0.0000   0.2721
  23.400   1.0299   0.22769   0.22314  -0.0691  0.0186  1.0000  -4.0913   0.0000   0.2738
  23.600   1.0315   0.23104   0.22654  -0.0715  0.0180  1.0000  -4.0936   0.0000   0.2756
  23.800   1.0331   0.23445   0.22999  -0.0739  0.0174  1.0000  -4.0921   0.0000   0.2774
  24.000   1.0345   0.23792   0.23352  -0.0764  0.0167  1.0000  -4.0863   0.0000   0.2793
  24.200   1.0361   0.24135   0.23698  -0.0789  0.0160  1.0000  -4.0815   0.0000   0.2812
  24.400   1.0381   0.24469   0.24035  -0.0814  0.0154  1.0000  -4.0795   0.0000   0.2830
  24.600   1.0401   0.24803   0.24371  -0.0839  0.0148  1.0000  -4.0805   0.0000   0.2848
  24.800   1.0410   0.25184   0.24758  -0.0866  0.0142  1.0000  -4.0575   0.0000   0.2869
  25.000   1.0421   0.25563   0.25142  -0.0893  0.0136  1.0000  -4.0331   0.0000   0.2890


