xflr5 v6.47

 Calculated polar for: NACA 23015

 1 1 Reynolds number fixed          Mach number fixed         

 xtrf =   1.000 (top)        1.000 (bottom)
 Mach =   0.000     Re =     1.300 e 6     Ncrit =   1.000

  alpha     CL        CD       CDp       Cm    Top Xtr Bot Xtr   Cpmin    Chinge    XCp    
 ------- -------- --------- --------- -------- ------- ------- -------- --------- ---------
 -10.000  -0.9383   0.01447   0.00794  -0.0200  0.7352  0.0116  -6.2023   0.0000   0.2164
  -9.800  -0.9190   0.01427   0.00767  -0.0195  0.7186  0.0118  -6.0330   0.0000   0.2167
  -9.600  -0.8995   0.01407   0.00742  -0.0191  0.7025  0.0120  -5.8651   0.0000   0.2169
  -9.400  -0.8799   0.01387   0.00716  -0.0186  0.6867  0.0122  -5.6985   0.0000   0.2172
  -9.200  -0.8601   0.01368   0.00692  -0.0181  0.6713  0.0124  -5.5330   0.0000   0.2174
  -9.000  -0.8401   0.01350   0.00668  -0.0177  0.6562  0.0126  -5.3689   0.0000   0.2176
  -8.800  -0.8201   0.01332   0.00645  -0.0173  0.6413  0.0128  -5.2062   0.0000   0.2178
  -8.600  -0.7998   0.01315   0.00623  -0.0169  0.6266  0.0130  -5.0450   0.0000   0.2179
  -8.400  -0.7795   0.01299   0.00602  -0.0166  0.6122  0.0132  -4.8853   0.0000   0.2180
  -8.200  -0.7590   0.01283   0.00581  -0.0162  0.5982  0.0135  -4.7272   0.0000   0.2180
  -8.000  -0.7384   0.01268   0.00561  -0.0159  0.5843  0.0137  -4.5707   0.0000   0.2180
  -7.800  -0.7177   0.01254   0.00542  -0.0155  0.5706  0.0139  -4.4179   0.0000   0.2180
  -7.400  -0.6760   0.01227   0.00506  -0.0149  0.5435  0.0143  -4.1318   0.0000   0.2178
  -7.200  -0.6550   0.01214   0.00489  -0.0147  0.5303  0.0145  -3.9911   0.0000   0.2177
  -7.000  -0.6340   0.01202   0.00472  -0.0144  0.5172  0.0148  -3.8518   0.0000   0.2175
  -6.800  -0.6129   0.01190   0.00456  -0.0141  0.5042  0.0153  -3.7142   0.0000   0.2173
  -6.600  -0.5918   0.01177   0.00439  -0.0139  0.4912  0.0158  -3.5782   0.0000   0.2170
  -6.400  -0.5706   0.01166   0.00424  -0.0136  0.4781  0.0164  -3.4440   0.0000   0.2167
  -6.200  -0.5493   0.01156   0.00410  -0.0134  0.4648  0.0168  -3.3115   0.0000   0.2163
  -6.000  -0.5279   0.01147   0.00396  -0.0132  0.4514  0.0171  -3.1808   0.0000   0.2158
  -5.800  -0.5064   0.01138   0.00383  -0.0130  0.4376  0.0174  -3.0519   0.0000   0.2152
  -5.600  -0.4849   0.01131   0.00370  -0.0127  0.4232  0.0177  -2.9248   0.0000   0.2146
  -5.400  -0.4635   0.01125   0.00358  -0.0125  0.4054  0.0180  -2.7998   0.0000   0.2139
  -5.200  -0.4424   0.01124   0.00348  -0.0123  0.3752  0.0183  -2.6777   0.0000   0.2132
  -5.000  -0.4214   0.01126   0.00338  -0.0120  0.3389  0.0188  -2.5580   0.0000   0.2125
  -4.800  -0.4003   0.01126   0.00328  -0.0118  0.3089  0.0196  -2.4448   0.0000   0.2117
  -4.600  -0.3788   0.01122   0.00319  -0.0116  0.2907  0.0206  -2.3351   0.0000   0.2106
  -4.400  -0.3571   0.01116   0.00309  -0.0114  0.2803  0.0213  -2.2266   0.0000   0.2092
  -4.200  -0.3351   0.01111   0.00300  -0.0113  0.2719  0.0218  -2.1196   0.0000   0.2075
  -4.000  -0.3132   0.01106   0.00292  -0.0111  0.2627  0.0222  -2.0143   0.0000   0.2055
  -3.800  -0.2911   0.01099   0.00284  -0.0110  0.2569  0.0228  -1.9105   0.0000   0.2032
  -3.600  -0.2691   0.01094   0.00277  -0.0109  0.2494  0.0235  -1.8084   0.0000   0.2005
  -3.400  -0.2471   0.01089   0.00269  -0.0108  0.2429  0.0247  -1.7079   0.0000   0.1973
  -3.200  -0.2250   0.01084   0.00263  -0.0107  0.2365  0.0260  -1.6092   0.0000   0.1934
  -3.000  -0.2028   0.01079   0.00256  -0.0106  0.2326  0.0270  -1.5149   0.0000   0.1885
  -2.800  -0.1806   0.01075   0.00250  -0.0105  0.2275  0.0278  -1.4265   0.0000   0.1823
  -2.600  -0.1583   0.01071   0.00245  -0.0104  0.2224  0.0287  -1.3396   0.0000   0.1744
  -2.400  -0.1361   0.01067   0.00240  -0.0103  0.2178  0.0301  -1.2542   0.0000   0.1638
  -2.200  -0.1138   0.01063   0.00235  -0.0102  0.2151  0.0319  -1.1701   0.0000   0.1490
  -2.000  -0.0914   0.01059   0.00231  -0.0102  0.2120  0.0336  -1.0876   0.0000   0.1268
  -1.800  -0.0690   0.01056   0.00227  -0.0101  0.2079  0.0348  -1.0069   0.0000   0.0901
  -1.600  -0.0467   0.01054   0.00224  -0.0101  0.2042  0.0364  -0.9336   0.0000   0.0185
  -1.400  -0.0243   0.01051   0.00220  -0.0100  0.2017  0.0392  -0.8614   0.0000  -0.1859
  -1.200  -0.0019   0.01048   0.00217  -0.0100  0.1996  0.0412  -0.7905   0.0000  -5.3446
  -1.000   0.0206   0.01046   0.00215  -0.0099  0.1966  0.0433  -0.7211   0.0000   0.7464
  -0.800   0.0429   0.01044   0.00213  -0.0099  0.1934  0.0466  -0.7059   0.0000   0.4828
  -0.600   0.0653   0.01042   0.00212  -0.0098  0.1906  0.0498  -0.7340   0.0000   0.3998
  -0.400   0.0878   0.01040   0.00210  -0.0098  0.1886  0.0533  -0.7622   0.0000   0.3592
  -0.200   0.1103   0.01039   0.00209  -0.0098  0.1866  0.0580  -0.7907   0.0000   0.3352
   0.000   0.1326   0.01038   0.00209  -0.0097  0.1839  0.0630  -0.8193   0.0000   0.3192
   0.200   0.1550   0.01036   0.00209  -0.0097  0.1813  0.0694  -0.8491   0.0000   0.3079
   0.400   0.1774   0.01035   0.00209  -0.0096  0.1787  0.0775  -0.8793   0.0000   0.2994
   0.600   0.1997   0.01032   0.00209  -0.0096  0.1769  0.0907  -0.9097   0.0000   0.2928
   0.800   0.2169   0.00966   0.00196  -0.0089  0.1753  0.2758  -0.9359   0.0000   0.2853
   1.000   0.2367   0.00936   0.00193  -0.0085  0.1731  0.3622  -0.9646   0.0000   0.2801
   1.200   0.2580   0.00923   0.00193  -0.0083  0.1708  0.4061  -0.9955   0.0000   0.2762
   1.400   0.2804   0.00923   0.00196  -0.0083  0.1681  0.4184  -1.0281   0.0000   0.2734
   1.600   0.3030   0.00926   0.00199  -0.0083  0.1663  0.4256  -1.0611   0.0000   0.2711
   1.800   0.3256   0.00929   0.00202  -0.0083  0.1647  0.4333  -1.0943   0.0000   0.2690
   2.000   0.3481   0.00933   0.00206  -0.0083  0.1627  0.4410  -1.1277   0.0000   0.2672
   2.200   0.3706   0.00936   0.00210  -0.0083  0.1603  0.4492  -1.1620   0.0000   0.2656
   2.400   0.3931   0.00940   0.00215  -0.0083  0.1578  0.4574  -1.1972   0.0000   0.2641
   2.600   0.4155   0.00943   0.00219  -0.0083  0.1561  0.4662  -1.2327   0.0000   0.2628
   2.800   0.4379   0.00947   0.00224  -0.0083  0.1546  0.4750  -1.2684   0.0000   0.2616
   3.000   0.4603   0.00952   0.00230  -0.0083  0.1527  0.4841  -1.3043   0.0000   0.2606
   3.200   0.4826   0.00956   0.00236  -0.0083  0.1503  0.4936  -1.3412   0.0000   0.2595
   3.400   0.5049   0.00961   0.00242  -0.0083  0.1480  0.5031  -1.3791   0.0000   0.2586
   3.600   0.5272   0.00966   0.00248  -0.0083  0.1464  0.5128  -1.4172   0.0000   0.2577
   3.800   0.5493   0.00971   0.00255  -0.0082  0.1448  0.5231  -1.4555   0.0000   0.2569
   4.000   0.5715   0.00976   0.00263  -0.0082  0.1429  0.5331  -1.4941   0.0000   0.2561
   4.200   0.5937   0.00982   0.00270  -0.0082  0.1406  0.5436  -1.5341   0.0000   0.2553
   4.400   0.6157   0.00988   0.00278  -0.0082  0.1384  0.5546  -1.5747   0.0000   0.2546
   4.600   0.6378   0.00993   0.00286  -0.0081  0.1370  0.5654  -1.6157   0.0000   0.2539
   4.800   0.6597   0.01000   0.00295  -0.0081  0.1352  0.5766  -1.6567   0.0000   0.2532
   5.000   0.6817   0.01007   0.00304  -0.0080  0.1333  0.5880  -1.6983   0.0000   0.2526
   5.200   0.7036   0.01014   0.00314  -0.0080  0.1309  0.5998  -1.7417   0.0000   0.2520
   5.400   0.7254   0.01021   0.00323  -0.0079  0.1292  0.6119  -1.7853   0.0000   0.2514
   5.600   0.7471   0.01028   0.00334  -0.0079  0.1276  0.6242  -1.8291   0.0000   0.2507
   5.800   0.7687   0.01036   0.00345  -0.0078  0.1256  0.6366  -1.8731   0.0000   0.2501
   6.000   0.7904   0.01044   0.00356  -0.0077  0.1235  0.6493  -1.9189   0.0000   0.2496
   6.200   0.8119   0.01052   0.00367  -0.0076  0.1214  0.6623  -1.9654   0.0000   0.2490
   6.400   0.8334   0.01061   0.00379  -0.0075  0.1198  0.6757  -2.0121   0.0000   0.2484
   6.600   0.8547   0.01071   0.00393  -0.0074  0.1177  0.6894  -2.0589   0.0000   0.2478
   6.800   0.8760   0.01080   0.00405  -0.0072  0.1157  0.7034  -2.1076   0.0000   0.2472
   7.000   0.8972   0.01090   0.00419  -0.0071  0.1136  0.7175  -2.1571   0.0000   0.2467
   7.200   0.9183   0.01099   0.00432  -0.0070  0.1119  0.7320  -2.2068   0.0000   0.2461
   7.400   0.9391   0.01111   0.00448  -0.0068  0.1096  0.7467  -2.2567   0.0000   0.2455
   7.600   0.9599   0.01123   0.00463  -0.0066  0.1075  0.7617  -2.3090   0.0000   0.2449
   7.800   0.9807   0.01133   0.00478  -0.0064  0.1056  0.7768  -2.3615   0.0000   0.2443
   8.000   1.0013   0.01145   0.00495  -0.0062  0.1035  0.7922  -2.4142   0.0000   0.2437
   8.200   1.0214   0.01160   0.00513  -0.0059  0.1010  0.8076  -2.4688   0.0000   0.2430
   8.400   1.0417   0.01172   0.00530  -0.0056  0.0989  0.8230  -2.5243   0.0000   0.2424
   8.600   1.0619   0.01186   0.00548  -0.0053  0.0968  0.8383  -2.5803   0.0000   0.2417
   8.800   1.0815   0.01202   0.00568  -0.0049  0.0941  0.8534  -2.6382   0.0000   0.2410
   9.000   1.1010   0.01218   0.00588  -0.0045  0.0918  0.8683  -2.6962   0.0000   0.2403
   9.200   1.1204   0.01234   0.00609  -0.0041  0.0895  0.8828  -2.7567   0.0000   0.2396
   9.400   1.1392   0.01253   0.00632  -0.0036  0.0866  0.8968  -2.8173   0.0000   0.2388
   9.600   1.1578   0.01273   0.00655  -0.0030  0.0840  0.9104  -2.8803   0.0000   0.2380
   9.800   1.1763   0.01293   0.00678  -0.0024  0.0812  0.9231  -2.9447   0.0000   0.2371
  10.000   1.1940   0.01319   0.00705  -0.0017  0.0780  0.9351  -3.0110   0.0000   0.2363
  10.200   1.2123   0.01342   0.00730  -0.0011  0.0751  0.9461  -3.0813   0.0000   0.2354
  10.400   1.2302   0.01372   0.00760  -0.0006  0.0714  0.9561  -3.1542   0.0000   0.2347
  10.600   1.2490   0.01400   0.00789  -0.0002  0.0680  0.9647  -3.2329   0.0000   0.2341
  10.800   1.2677   0.01436   0.00823   0.0001  0.0639  0.9723  -3.3150   0.0000   0.2335
  11.000   1.2869   0.01471   0.00857   0.0003  0.0598  0.9787  -3.4033   0.0000   0.2331
  11.200   1.3056   0.01510   0.00895   0.0005  0.0558  0.9844  -3.4942   0.0000   0.2326
  11.400   1.3234   0.01552   0.00935   0.0008  0.0516  0.9900  -3.5860   0.0000   0.2320
  11.600   1.3410   0.01592   0.00974   0.0012  0.0478  0.9953  -3.6817   0.0000   0.2314
  11.800   1.3565   0.01635   0.01016   0.0019  0.0442  1.0000  -3.7749   0.0000   0.2305
  12.000   1.3679   0.01676   0.01057   0.0035  0.0413  1.0000  -3.8587   0.0000   0.2290
  12.200   1.3792   0.01718   0.01099   0.0051  0.0386  1.0000  -3.9466   0.0000   0.2276
  12.400   1.3903   0.01765   0.01145   0.0066  0.0360  1.0000  -4.0362   0.0000   0.2262
  12.600   1.4019   0.01811   0.01192   0.0080  0.0338  1.0000  -4.1277   0.0000   0.2249
  12.800   1.4130   0.01862   0.01244   0.0093  0.0316  1.0000  -4.2185   0.0000   0.2237
  13.000   1.4241   0.01915   0.01298   0.0106  0.0297  1.0000  -4.3115   0.0000   0.2225
  13.200   1.4350   0.01971   0.01355   0.0118  0.0279  1.0000  -4.4088   0.0000   0.2213
  13.600   1.4560   0.02093   0.01480   0.0140  0.0251  1.0000  -4.6027   0.0000   0.2191
  13.800   1.4656   0.02163   0.01553   0.0151  0.0236  1.0000  -4.6975   0.0000   0.2180
  14.000   1.4743   0.02241   0.01633   0.0162  0.0222  1.0000  -4.7900   0.0000   0.2169
  14.200   1.4838   0.02315   0.01710   0.0172  0.0213  1.0000  -4.8860   0.0000   0.2160
  14.400   1.4933   0.02394   0.01792   0.0180  0.0207  1.0000  -4.9862   0.0000   0.2151
  14.600   1.5014   0.02485   0.01886   0.0188  0.0197  1.0000  -5.0843   0.0000   0.2142
  14.800   1.5081   0.02590   0.01994   0.0197  0.0187  1.0000  -5.1772   0.0000   0.2133
  15.000   1.5150   0.02699   0.02107   0.0203  0.0178  1.0000  -5.2712   0.0000   0.2124
  15.200   1.5214   0.02816   0.02228   0.0209  0.0170  1.0000  -5.3638   0.0000   0.2117
  15.400   1.5270   0.02944   0.02360   0.0214  0.0163  1.0000  -5.4534   0.0000   0.2109
  15.600   1.5323   0.03081   0.02501   0.0218  0.0158  1.0000  -5.5422   0.0000   0.2103
  15.800   1.5369   0.03230   0.02654   0.0220  0.0154  1.0000  -5.6280   0.0000   0.2097
  16.000   1.5404   0.03393   0.02823   0.0222  0.0151  1.0000  -5.7094   0.0000   0.2091
  16.200   1.5435   0.03568   0.03003   0.0222  0.0147  1.0000  -5.7888   0.0000   0.2087
  16.400   1.5453   0.03761   0.03202   0.0221  0.0143  1.0000  -5.8628   0.0000   0.2083
  16.600   1.5457   0.03976   0.03423   0.0219  0.0137  1.0000  -5.9343   0.0000   0.2079
  16.800   1.5441   0.04218   0.03671   0.0215  0.0132  1.0000  -5.9979   0.0000   0.2076
  17.000   1.5407   0.04489   0.03949   0.0209  0.0127  1.0000  -6.0524   0.0000   0.2074
  17.200   1.5358   0.04787   0.04254   0.0202  0.0123  1.0000  -6.0986   0.0000   0.2073
  17.400   1.5294   0.05111   0.04585   0.0193  0.0120  1.0000  -6.1369   0.0000   0.2073
  17.600   1.5220   0.05453   0.04936   0.0182  0.0118  1.0000  -6.1695   0.0000   0.2074
  17.800   1.5133   0.05821   0.05313   0.0170  0.0117  1.0000  -6.1944   0.0000   0.2076
  18.000   1.5026   0.06224   0.05725   0.0156  0.0116  1.0000  -6.2078   0.0000   0.2079
  18.200   1.4895   0.06664   0.06174   0.0141  0.0115  1.0000  -6.2074   0.0000   0.2083
  18.400   1.4742   0.07143   0.06663   0.0123  0.0114  1.0000  -6.1940   0.0000   0.2088
  18.600   1.4567   0.07661   0.07192   0.0103  0.0114  1.0000  -6.1670   0.0000   0.2095
  18.800   1.4369   0.08216   0.07758   0.0082  0.0113  1.0000  -6.1251   0.0000   0.2104
  19.000   1.4155   0.08802   0.08356   0.0059  0.0113  1.0000  -6.0724   0.0000   0.2114
  19.200   1.3934   0.09410   0.08975   0.0034  0.0113  1.0000  -6.0123   0.0000   0.2125
  19.400   1.3705   0.10034   0.09609   0.0009  0.0112  1.0000  -5.9443   0.0000   0.2138
  19.600   1.3481   0.10660   0.10246  -0.0018  0.0112  1.0000  -5.8755   0.0000   0.2152
  19.800   1.3278   0.11263   0.10859  -0.0044  0.0112  1.0000  -5.8147   0.0000   0.2167
  20.000   1.3090   0.11846   0.11452  -0.0070  0.0111  1.0000  -5.7595   0.0000   0.2183
  20.200   1.2916   0.12414   0.12028  -0.0097  0.0111  1.0000  -5.7086   0.0000   0.2199
  20.400   1.2767   0.12950   0.12572  -0.0122  0.0110  1.0000  -5.6688   0.0000   0.2215
  20.600   1.2639   0.13457   0.13086  -0.0147  0.0109  1.0000  -5.6392   0.0000   0.2231
  20.800   1.2521   0.13954   0.13589  -0.0173  0.0108  1.0000  -5.6126   0.0000   0.2247
  21.000   1.2415   0.14431   0.14073  -0.0198  0.0107  1.0000  -5.5905   0.0000   0.2264
  21.200   1.2334   0.14867   0.14515  -0.0222  0.0106  1.0000  -5.5828   0.0000   0.2279
  21.400   1.2257   0.15306   0.14960  -0.0246  0.0104  1.0000  -5.5740   0.0000   0.2295
  21.600   1.2186   0.15737   0.15396  -0.0271  0.0102  1.0000  -5.5674   0.0000   0.2312
  21.800   1.2133   0.16140   0.15803  -0.0294  0.0100  1.0000  -5.5708   0.0000   0.2327
  22.000   1.2070   0.16566   0.16234  -0.0320  0.0098  1.0000  -5.5647   0.0000   0.2345
  22.200   1.2028   0.16954   0.16626  -0.0344  0.0095  1.0000  -5.5718   0.0000   0.2360
  22.400   1.1976   0.17367   0.17043  -0.0370  0.0093  1.0000  -5.5681   0.0000   0.2378
  22.600   1.1947   0.17732   0.17412  -0.0393  0.0091  1.0000  -5.5809   0.0000   0.2394
  22.800   1.1914   0.18107   0.17791  -0.0418  0.0088  1.0000  -5.5890   0.0000   0.2410
  23.000   1.1894   0.18461   0.18148  -0.0441  0.0086  1.0000  -5.6048   0.0000   0.2425
  23.200   1.1882   0.18800   0.18491  -0.0464  0.0084  1.0000  -5.6264   0.0000   0.2440
  23.400   1.1858   0.19169   0.18864  -0.0490  0.0082  1.0000  -5.6392   0.0000   0.2457
  23.600   1.1856   0.19493   0.19192  -0.0512  0.0080  1.0000  -5.6698   0.0000   0.2470
  23.800   1.1843   0.19843   0.19545  -0.0537  0.0078  1.0000  -5.6889   0.0000   0.2487
  24.000   1.1840   0.20174   0.19880  -0.0561  0.0077  1.0000  -5.7149   0.0000   0.2501
  24.200   1.1844   0.20490   0.20198  -0.0584  0.0075  1.0000  -5.7466   0.0000   0.2515
  24.400   1.1834   0.20839   0.20551  -0.0610  0.0074  1.0000  -5.7633   0.0000   0.2532
  24.600   1.1836   0.21160   0.20875  -0.0634  0.0072  1.0000  -5.7910   0.0000   0.2547
  24.800   1.1844   0.21471   0.21190  -0.0658  0.0071  1.0000  -5.8218   0.0000   0.2561
  25.000   1.1836   0.21820   0.21542  -0.0684  0.0070  1.0000  -5.8359   0.0000   0.2578


