xflr5 v6.47

 Calculated polar for: NACA 23015

 1 1 Reynolds number fixed          Mach number fixed         

 xtrf =   1.000 (top)        1.000 (bottom)
 Mach =   0.000     Re =     0.800 e 6     Ncrit =   1.000

  alpha     CL        CD       CDp       Cm    Top Xtr Bot Xtr   Cpmin    Chinge    XCp    
 ------- -------- --------- --------- -------- ------- ------- -------- --------- ---------
 -10.000  -0.9163   0.01610   0.00937  -0.0235  0.8153  0.0128  -6.0744   0.0000   0.2120
  -9.800  -0.8981   0.01586   0.00904  -0.0228  0.7978  0.0130  -5.9122   0.0000   0.2125
  -9.600  -0.8796   0.01563   0.00874  -0.0221  0.7803  0.0131  -5.7507   0.0000   0.2129
  -9.400  -0.8609   0.01540   0.00844  -0.0215  0.7631  0.0133  -5.5901   0.0000   0.2133
  -9.200  -0.8419   0.01519   0.00814  -0.0209  0.7461  0.0135  -5.4304   0.0000   0.2136
  -9.000  -0.8228   0.01498   0.00786  -0.0203  0.7295  0.0137  -5.2717   0.0000   0.2139
  -8.800  -0.8034   0.01478   0.00759  -0.0198  0.7131  0.0139  -5.1141   0.0000   0.2141
  -8.600  -0.7839   0.01458   0.00733  -0.0193  0.6970  0.0141  -4.9577   0.0000   0.2143
  -8.400  -0.7642   0.01439   0.00707  -0.0189  0.6812  0.0143  -4.8027   0.0000   0.2144
  -8.200  -0.7443   0.01421   0.00682  -0.0184  0.6657  0.0145  -4.6489   0.0000   0.2145
  -8.000  -0.7244   0.01404   0.00659  -0.0180  0.6503  0.0147  -4.4965   0.0000   0.2146
  -7.800  -0.7043   0.01387   0.00636  -0.0176  0.6352  0.0150  -4.3506   0.0000   0.2146
  -7.600  -0.6842   0.01369   0.00613  -0.0172  0.6205  0.0154  -4.2100   0.0000   0.2146
  -7.400  -0.6640   0.01353   0.00591  -0.0168  0.6060  0.0159  -4.0707   0.0000   0.2146
  -7.200  -0.6436   0.01337   0.00570  -0.0164  0.5917  0.0164  -3.9330   0.0000   0.2145
  -7.000  -0.6231   0.01322   0.00550  -0.0160  0.5775  0.0168  -3.7969   0.0000   0.2144
  -6.800  -0.6024   0.01309   0.00531  -0.0157  0.5634  0.0171  -3.6625   0.0000   0.2141
  -6.600  -0.5816   0.01295   0.00512  -0.0154  0.5495  0.0174  -3.5296   0.0000   0.2139
  -6.400  -0.5608   0.01283   0.00494  -0.0151  0.5357  0.0177  -3.3982   0.0000   0.2135
  -6.200  -0.5399   0.01271   0.00477  -0.0148  0.5219  0.0180  -3.2684   0.0000   0.2131
  -6.000  -0.5189   0.01260   0.00461  -0.0145  0.5081  0.0183  -3.1401   0.0000   0.2126
  -5.800  -0.4978   0.01249   0.00445  -0.0142  0.4943  0.0187  -3.0135   0.0000   0.2121
  -5.600  -0.4768   0.01239   0.00429  -0.0140  0.4802  0.0193  -2.8885   0.0000   0.2115
  -5.400  -0.4557   0.01229   0.00414  -0.0137  0.4659  0.0201  -2.7652   0.0000   0.2108
  -5.200  -0.4345   0.01220   0.00400  -0.0135  0.4510  0.0209  -2.6436   0.0000   0.2099
  -5.000  -0.4133   0.01212   0.00387  -0.0132  0.4350  0.0216  -2.5240   0.0000   0.2090
  -4.800  -0.3922   0.01209   0.00375  -0.0129  0.4117  0.0220  -2.4140   0.0000   0.2080
  -4.600  -0.3715   0.01210   0.00364  -0.0126  0.3778  0.0224  -2.3075   0.0000   0.2070
  -4.400  -0.3507   0.01212   0.00354  -0.0123  0.3434  0.0230  -2.2026   0.0000   0.2058
  -4.200  -0.3297   0.01212   0.00344  -0.0121  0.3162  0.0237  -2.0985   0.0000   0.2044
  -4.000  -0.3083   0.01207   0.00334  -0.0119  0.3027  0.0248  -1.9949   0.0000   0.2025
  -3.800  -0.2866   0.01201   0.00325  -0.0117  0.2929  0.0259  -1.8926   0.0000   0.2001
  -3.600  -0.2650   0.01196   0.00316  -0.0115  0.2834  0.0269  -1.7920   0.0000   0.1974
  -3.400  -0.2433   0.01190   0.00307  -0.0114  0.2739  0.0278  -1.6930   0.0000   0.1941
  -3.200  -0.2214   0.01185   0.00299  -0.0112  0.2670  0.0286  -1.5955   0.0000   0.1901
  -3.000  -0.1996   0.01181   0.00292  -0.0111  0.2594  0.0298  -1.5037   0.0000   0.1851
  -2.800  -0.1777   0.01176   0.00285  -0.0109  0.2517  0.0312  -1.4164   0.0000   0.1789
  -2.600  -0.1559   0.01172   0.00278  -0.0108  0.2454  0.0330  -1.3305   0.0000   0.1709
  -2.400  -0.1339   0.01167   0.00273  -0.0106  0.2404  0.0344  -1.2460   0.0000   0.1600
  -2.200  -0.1118   0.01164   0.00267  -0.0105  0.2352  0.0356  -1.1630   0.0000   0.1448
  -2.000  -0.0899   0.01160   0.00262  -0.0104  0.2294  0.0377  -1.0815   0.0000   0.1222
  -1.800  -0.0678   0.01157   0.00258  -0.0103  0.2247  0.0401  -1.0023   0.0000   0.0847
  -1.600  -0.0457   0.01154   0.00253  -0.0102  0.2213  0.0420  -0.9295   0.0000   0.0103
  -1.400  -0.0236   0.01151   0.00250  -0.0101  0.2176  0.0445  -0.8581   0.0000  -0.2036
  -1.200  -0.0015   0.01148   0.00247  -0.0100  0.2137  0.0476  -0.7881   0.0000  -6.7092
  -1.000   0.0206   0.01146   0.00244  -0.0099  0.2097  0.0508  -0.7193   0.0000   0.7437
  -0.800   0.0428   0.01144   0.00242  -0.0098  0.2065  0.0545  -0.7056   0.0000   0.4824
  -0.600   0.0649   0.01142   0.00239  -0.0097  0.2043  0.0590  -0.7334   0.0000   0.3993
  -0.400   0.0871   0.01139   0.00238  -0.0096  0.2015  0.0643  -0.7614   0.0000   0.3585
  -0.200   0.1092   0.01138   0.00237  -0.0096  0.1981  0.0707  -0.7896   0.0000   0.3342
   0.000   0.1312   0.01136   0.00236  -0.0095  0.1949  0.0790  -0.8179   0.0000   0.3181
   0.200   0.1533   0.01132   0.00235  -0.0094  0.1929  0.0917  -0.8473   0.0000   0.3066
   0.400   0.1719   0.01084   0.00224  -0.0088  0.1912  0.2168  -0.8743   0.0000   0.2965
   0.600   0.1893   0.01027   0.00215  -0.0082  0.1888  0.3630  -0.9007   0.0000   0.2878
   0.800   0.2099   0.01010   0.00214  -0.0079  0.1858  0.4159  -0.9299   0.0000   0.2819
   1.000   0.2316   0.01006   0.00216  -0.0077  0.1832  0.4405  -0.9601   0.0000   0.2776
   1.200   0.2540   0.01008   0.00219  -0.0077  0.1813  0.4487  -0.9917   0.0000   0.2743
   1.400   0.2764   0.01010   0.00222  -0.0077  0.1796  0.4567  -1.0242   0.0000   0.2715
   1.600   0.2987   0.01013   0.00225  -0.0076  0.1771  0.4654  -1.0569   0.0000   0.2691
   1.800   0.3209   0.01017   0.00229  -0.0076  0.1744  0.4739  -1.0898   0.0000   0.2671
   2.000   0.3432   0.01021   0.00234  -0.0075  0.1721  0.4831  -1.1228   0.0000   0.2652
   2.200   0.3654   0.01024   0.00238  -0.0075  0.1703  0.4925  -1.1567   0.0000   0.2636
   2.400   0.3877   0.01027   0.00243  -0.0075  0.1686  0.5019  -1.1917   0.0000   0.2622
   2.600   0.4098   0.01031   0.00249  -0.0074  0.1663  0.5119  -1.2268   0.0000   0.2609
   2.800   0.4319   0.01037   0.00255  -0.0073  0.1637  0.5220  -1.2621   0.0000   0.2596
   3.000   0.4540   0.01041   0.00261  -0.0073  0.1616  0.5321  -1.2977   0.0000   0.2585
   3.200   0.4761   0.01045   0.00268  -0.0072  0.1600  0.5428  -1.3341   0.0000   0.2575
   3.400   0.4981   0.01050   0.00274  -0.0072  0.1583  0.5536  -1.3717   0.0000   0.2566
   3.600   0.5201   0.01055   0.00282  -0.0071  0.1560  0.5646  -1.4094   0.0000   0.2556
   3.800   0.5419   0.01062   0.00290  -0.0070  0.1537  0.5759  -1.4473   0.0000   0.2548
   4.000   0.5638   0.01068   0.00299  -0.0070  0.1517  0.5873  -1.4855   0.0000   0.2540
   4.200   0.5857   0.01073   0.00307  -0.0069  0.1501  0.5992  -1.5248   0.0000   0.2532
   4.400   0.6075   0.01079   0.00316  -0.0068  0.1484  0.6114  -1.5651   0.0000   0.2525
   4.600   0.6291   0.01086   0.00325  -0.0067  0.1461  0.6235  -1.6055   0.0000   0.2518
   4.800   0.6507   0.01094   0.00336  -0.0066  0.1439  0.6360  -1.6461   0.0000   0.2510
   5.000   0.6723   0.01100   0.00346  -0.0065  0.1420  0.6488  -1.6870   0.0000   0.2504
   5.200   0.6939   0.01107   0.00357  -0.0064  0.1406  0.6618  -1.7298   0.0000   0.2497
   5.400   0.7154   0.01115   0.00368  -0.0062  0.1387  0.6752  -1.7729   0.0000   0.2491
   5.600   0.7366   0.01124   0.00380  -0.0061  0.1363  0.6888  -1.8161   0.0000   0.2484
   5.800   0.7578   0.01133   0.00393  -0.0059  0.1342  0.7026  -1.8595   0.0000   0.2478
   6.000   0.7791   0.01141   0.00406  -0.0058  0.1326  0.7168  -1.9043   0.0000   0.2472
   6.200   0.8003   0.01149   0.00418  -0.0056  0.1310  0.7311  -1.9502   0.0000   0.2465
   6.400   0.8212   0.01159   0.00432  -0.0054  0.1288  0.7456  -1.9962   0.0000   0.2459
   6.600   0.8419   0.01170   0.00448  -0.0052  0.1265  0.7603  -2.0422   0.0000   0.2453
   6.800   0.8627   0.01180   0.00463  -0.0049  0.1247  0.7751  -2.0896   0.0000   0.2446
   7.000   0.8834   0.01190   0.00478  -0.0047  0.1232  0.7901  -2.1383   0.0000   0.2440
   7.200   0.9039   0.01201   0.00494  -0.0044  0.1211  0.8051  -2.1871   0.0000   0.2433
   7.400   0.9241   0.01214   0.00511  -0.0041  0.1187  0.8202  -2.2358   0.0000   0.2426
   7.600   0.9442   0.01227   0.00529  -0.0037  0.1168  0.8352  -2.2867   0.0000   0.2419
   7.800   0.9644   0.01239   0.00546  -0.0034  0.1153  0.8499  -2.3382   0.0000   0.2412
   8.000   0.9842   0.01252   0.00565  -0.0030  0.1131  0.8644  -2.3896   0.0000   0.2405
   8.200   1.0037   0.01268   0.00585  -0.0025  0.1106  0.8784  -2.4426   0.0000   0.2398
   8.400   1.0231   0.01285   0.00606  -0.0021  0.1087  0.8920  -2.4964   0.0000   0.2390
   8.600   1.0425   0.01301   0.00626  -0.0016  0.1069  0.9049  -2.5508   0.0000   0.2382
   8.800   1.0617   0.01319   0.00647  -0.0011  0.1045  0.9171  -2.6073   0.0000   0.2375
   9.000   1.0809   0.01339   0.00670  -0.0007  0.1020  0.9285  -2.6646   0.0000   0.2368
   9.200   1.1005   0.01361   0.00694  -0.0003  0.1000  0.9389  -2.7240   0.0000   0.2362
   9.400   1.1206   0.01382   0.00717  -0.0001  0.0976  0.9481  -2.7863   0.0000   0.2357
   9.600   1.1409   0.01407   0.00743   0.0001  0.0949  0.9563  -2.8507   0.0000   0.2353
   9.800   1.1613   0.01434   0.00770   0.0001  0.0925  0.9636  -2.9175   0.0000   0.2349
  10.000   1.1823   0.01460   0.00797   0.0001  0.0897  0.9699  -2.9886   0.0000   0.2347
  10.200   1.2027   0.01490   0.00827   0.0001  0.0866  0.9756  -3.0615   0.0000   0.2344
  10.400   1.2227   0.01520   0.00857   0.0001  0.0839  0.9810  -3.1375   0.0000   0.2340
  10.600   1.2424   0.01552   0.00889   0.0002  0.0805  0.9862  -3.2168   0.0000   0.2337
  10.800   1.2614   0.01587   0.00923   0.0004  0.0773  0.9912  -3.2991   0.0000   0.2332
  11.000   1.2799   0.01622   0.00959   0.0007  0.0737  0.9961  -3.3853   0.0000   0.2327
  11.200   1.2965   0.01661   0.00997   0.0013  0.0702  1.0000  -3.4703   0.0000   0.2319
  11.400   1.3100   0.01698   0.01034   0.0025  0.0666  1.0000  -3.5517   0.0000   0.2307
  11.600   1.3216   0.01739   0.01074   0.0041  0.0632  1.0000  -3.6302   0.0000   0.2292
  11.800   1.3327   0.01781   0.01116   0.0057  0.0596  1.0000  -3.7122   0.0000   0.2277
  12.000   1.3438   0.01828   0.01163   0.0072  0.0562  1.0000  -3.7943   0.0000   0.2262
  12.200   1.3545   0.01879   0.01214   0.0086  0.0527  1.0000  -3.8762   0.0000   0.2249
  12.400   1.3654   0.01931   0.01267   0.0100  0.0495  1.0000  -3.9637   0.0000   0.2236
  12.600   1.3755   0.01990   0.01327   0.0114  0.0464  1.0000  -4.0500   0.0000   0.2222
  12.800   1.3861   0.02049   0.01387   0.0126  0.0436  1.0000  -4.1379   0.0000   0.2210
  13.000   1.3953   0.02117   0.01456   0.0139  0.0408  1.0000  -4.2227   0.0000   0.2198
  13.200   1.4053   0.02184   0.01525   0.0151  0.0385  1.0000  -4.3117   0.0000   0.2187
  13.400   1.4141   0.02260   0.01602   0.0162  0.0362  1.0000  -4.4017   0.0000   0.2176
  13.600   1.4228   0.02339   0.01685   0.0173  0.0342  1.0000  -4.4914   0.0000   0.2165
  13.800   1.4312   0.02424   0.01772   0.0183  0.0323  1.0000  -4.5806   0.0000   0.2155
  14.000   1.4386   0.02519   0.01870   0.0192  0.0306  1.0000  -4.6669   0.0000   0.2145
  14.200   1.4461   0.02617   0.01971   0.0200  0.0291  1.0000  -4.7541   0.0000   0.2136
  14.400   1.4530   0.02724   0.02082   0.0208  0.0277  1.0000  -4.8392   0.0000   0.2127
  14.600   1.4588   0.02844   0.02206   0.0214  0.0264  1.0000  -4.9224   0.0000   0.2119
  14.800   1.4645   0.02970   0.02337   0.0220  0.0252  1.0000  -5.0091   0.0000   0.2111
  15.000   1.4692   0.03111   0.02482   0.0224  0.0240  1.0000  -5.0922   0.0000   0.2104
  15.200   1.4730   0.03266   0.02642   0.0227  0.0229  1.0000  -5.1716   0.0000   0.2098
  15.400   1.4762   0.03432   0.02814   0.0229  0.0222  1.0000  -5.2488   0.0000   0.2092
  15.600   1.4795   0.03604   0.02991   0.0230  0.0216  1.0000  -5.3261   0.0000   0.2088
  15.800   1.4814   0.03797   0.03190   0.0229  0.0209  1.0000  -5.3978   0.0000   0.2084
  16.000   1.4819   0.04012   0.03412   0.0226  0.0202  1.0000  -5.4628   0.0000   0.2080
  16.200   1.4804   0.04255   0.03661   0.0222  0.0194  1.0000  -5.5193   0.0000   0.2078
  16.400   1.4772   0.04525   0.03939   0.0217  0.0188  1.0000  -5.5677   0.0000   0.2076
  16.600   1.4730   0.04815   0.04237   0.0209  0.0182  1.0000  -5.6113   0.0000   0.2076
  16.800   1.4679   0.05124   0.04554   0.0200  0.0177  1.0000  -5.6494   0.0000   0.2076
  17.000   1.4611   0.05463   0.04902   0.0190  0.0173  1.0000  -5.6789   0.0000   0.2077
  17.200   1.4525   0.05833   0.05281   0.0177  0.0170  1.0000  -5.6989   0.0000   0.2079
  17.400   1.4420   0.06236   0.05694   0.0163  0.0167  1.0000  -5.7103   0.0000   0.2083
  17.600   1.4294   0.06673   0.06141   0.0147  0.0165  1.0000  -5.7110   0.0000   0.2088
  17.800   1.4148   0.07148   0.06627   0.0129  0.0164  1.0000  -5.6998   0.0000   0.2094
  18.000   1.3982   0.07659   0.07149   0.0110  0.0162  1.0000  -5.6763   0.0000   0.2102
  18.200   1.3796   0.08204   0.07705   0.0088  0.0161  1.0000  -5.6401   0.0000   0.2110
  18.400   1.3598   0.08776   0.08289   0.0066  0.0161  1.0000  -5.5945   0.0000   0.2121
  18.600   1.3394   0.09365   0.08889   0.0042  0.0160  1.0000  -5.5432   0.0000   0.2133
  18.800   1.3188   0.09960   0.09495   0.0017  0.0159  1.0000  -5.4879   0.0000   0.2146
  19.000   1.2985   0.10561   0.10106  -0.0008  0.0158  1.0000  -5.4306   0.0000   0.2160
  19.200   1.2801   0.11140   0.10695  -0.0033  0.0157  1.0000  -5.3802   0.0000   0.2175
  19.400   1.2630   0.11703   0.11267  -0.0059  0.0156  1.0000  -5.3343   0.0000   0.2191
  19.600   1.2472   0.12250   0.11822  -0.0084  0.0155  1.0000  -5.2924   0.0000   0.2207
  19.800   1.2333   0.12774   0.12354  -0.0108  0.0153  1.0000  -5.2585   0.0000   0.2223
  20.000   1.2211   0.13276   0.12863  -0.0133  0.0151  1.0000  -5.2319   0.0000   0.2239
  20.200   1.2104   0.13759   0.13353  -0.0157  0.0149  1.0000  -5.2110   0.0000   0.2255
  20.400   1.2013   0.14215   0.13816  -0.0181  0.0146  1.0000  -5.1979   0.0000   0.2271
  20.600   1.1942   0.14639   0.14244  -0.0203  0.0144  1.0000  -5.1952   0.0000   0.2286
  20.800   1.1868   0.15074   0.14686  -0.0227  0.0140  1.0000  -5.1881   0.0000   0.2302
  21.000   1.1810   0.15484   0.15101  -0.0250  0.0137  1.0000  -5.1894   0.0000   0.2318
  21.200   1.1757   0.15892   0.15513  -0.0273  0.0133  1.0000  -5.1912   0.0000   0.2334
  21.400   1.1710   0.16290   0.15916  -0.0297  0.0129  1.0000  -5.1956   0.0000   0.2350
  21.600   1.1669   0.16682   0.16312  -0.0320  0.0125  1.0000  -5.2015   0.0000   0.2366
  21.800   1.1632   0.17067   0.16701  -0.0344  0.0122  1.0000  -5.2090   0.0000   0.2383
  22.000   1.1601   0.17444   0.17082  -0.0367  0.0119  1.0000  -5.2182   0.0000   0.2399
  22.200   1.1588   0.17781   0.17423  -0.0389  0.0117  1.0000  -5.2406   0.0000   0.2413
  22.400   1.1569   0.18137   0.17784  -0.0412  0.0115  1.0000  -5.2552   0.0000   0.2428
  22.600   1.1563   0.18465   0.18116  -0.0434  0.0113  1.0000  -5.2799   0.0000   0.2442
  22.800   1.1557   0.18799   0.18454  -0.0457  0.0111  1.0000  -5.3018   0.0000   0.2457
  23.000   1.1551   0.19135   0.18793  -0.0480  0.0110  1.0000  -5.3226   0.0000   0.2472
  23.200   1.1556   0.19448   0.19110  -0.0501  0.0107  1.0000  -5.3514   0.0000   0.2485
  23.400   1.1551   0.19785   0.19450  -0.0525  0.0105  1.0000  -5.3703   0.0000   0.2501
  23.600   1.1552   0.20109   0.19778  -0.0548  0.0103  1.0000  -5.3957   0.0000   0.2515
  23.800   1.1558   0.20426   0.20098  -0.0571  0.0100  1.0000  -5.4258   0.0000   0.2530
  24.000   1.1551   0.20773   0.20449  -0.0597  0.0097  1.0000  -5.4429   0.0000   0.2547
  24.200   1.1552   0.21103   0.20781  -0.0621  0.0094  1.0000  -5.4664   0.0000   0.2563
  24.400   1.1557   0.21428   0.21109  -0.0645  0.0091  1.0000  -5.4913   0.0000   0.2578
  24.600   1.1561   0.21753   0.21438  -0.0670  0.0089  1.0000  -5.5139   0.0000   0.2594
  24.800   1.1574   0.22058   0.21746  -0.0694  0.0086  1.0000  -5.5448   0.0000   0.2608
  25.000   1.1589   0.22358   0.22049  -0.0717  0.0084  1.0000  -5.5770   0.0000   0.2622


