xflr5 v6.47

 Calculated polar for: NACA 23015

 1 1 Reynolds number fixed          Mach number fixed         

 xtrf =   1.000 (top)        1.000 (bottom)
 Mach =   0.000     Re =     1.000 e 6     Ncrit =   1.000

  alpha     CL        CD       CDp       Cm    Top Xtr Bot Xtr   Cpmin    Chinge    XCp    
 ------- -------- --------- --------- -------- ------- ------- -------- --------- ---------
 -10.000  -0.9273   0.01530   0.00866  -0.0217  0.7782  0.0123  -6.1382   0.0000   0.2142
  -9.800  -0.9085   0.01508   0.00836  -0.0211  0.7610  0.0125  -5.9725   0.0000   0.2146
  -9.600  -0.8895   0.01486   0.00808  -0.0206  0.7441  0.0126  -5.8078   0.0000   0.2150
  -9.400  -0.8703   0.01465   0.00780  -0.0200  0.7275  0.0128  -5.6439   0.0000   0.2153
  -9.200  -0.8509   0.01445   0.00753  -0.0195  0.7111  0.0130  -5.4812   0.0000   0.2155
  -9.000  -0.8313   0.01425   0.00727  -0.0190  0.6950  0.0132  -5.3197   0.0000   0.2157
  -8.800  -0.8116   0.01406   0.00703  -0.0186  0.6792  0.0134  -5.1596   0.0000   0.2159
  -8.600  -0.7917   0.01388   0.00678  -0.0181  0.6638  0.0136  -5.0007   0.0000   0.2161
  -8.400  -0.7717   0.01371   0.00655  -0.0177  0.6487  0.0138  -4.8433   0.0000   0.2162
  -8.200  -0.7515   0.01354   0.00632  -0.0173  0.6338  0.0140  -4.6874   0.0000   0.2163
  -8.000  -0.7312   0.01338   0.00610  -0.0169  0.6192  0.0142  -4.5329   0.0000   0.2163
  -7.800  -0.7108   0.01322   0.00589  -0.0166  0.6047  0.0144  -4.3837   0.0000   0.2163
  -7.600  -0.6903   0.01307   0.00569  -0.0162  0.5905  0.0147  -4.2417   0.0000   0.2163
  -7.400  -0.6697   0.01293   0.00550  -0.0159  0.5766  0.0150  -4.1010   0.0000   0.2162
  -7.200  -0.6491   0.01278   0.00530  -0.0156  0.5629  0.0154  -3.9617   0.0000   0.2161
  -7.000  -0.6284   0.01263   0.00511  -0.0152  0.5492  0.0159  -3.8239   0.0000   0.2159
  -6.800  -0.6076   0.01250   0.00493  -0.0149  0.5356  0.0164  -3.6877   0.0000   0.2157
  -6.600  -0.5866   0.01238   0.00476  -0.0146  0.5221  0.0168  -3.5533   0.0000   0.2154
  -6.400  -0.5656   0.01226   0.00460  -0.0144  0.5087  0.0172  -3.4205   0.0000   0.2151
  -6.200  -0.5444   0.01215   0.00444  -0.0141  0.4953  0.0175  -3.2894   0.0000   0.2147
  -6.000  -0.5232   0.01205   0.00429  -0.0139  0.4817  0.0178  -3.1600   0.0000   0.2142
  -5.800  -0.5020   0.01196   0.00414  -0.0136  0.4679  0.0181  -3.0322   0.0000   0.2136
  -5.600  -0.4806   0.01187   0.00400  -0.0134  0.4538  0.0184  -2.9062   0.0000   0.2130
  -5.400  -0.4593   0.01179   0.00387  -0.0132  0.4391  0.0188  -2.7820   0.0000   0.2122
  -5.200  -0.4381   0.01171   0.00374  -0.0129  0.4232  0.0195  -2.6596   0.0000   0.2114
  -5.000  -0.4170   0.01167   0.00362  -0.0127  0.3978  0.0204  -2.5398   0.0000   0.2106
  -4.800  -0.3962   0.01169   0.00352  -0.0124  0.3624  0.0212  -2.4289   0.0000   0.2098
  -4.600  -0.3753   0.01171   0.00342  -0.0121  0.3282  0.0217  -2.3215   0.0000   0.2088
  -4.400  -0.3540   0.01170   0.00332  -0.0119  0.3045  0.0222  -2.2150   0.0000   0.2075
  -4.200  -0.3324   0.01165   0.00323  -0.0117  0.2927  0.0226  -2.1090   0.0000   0.2059
  -4.000  -0.3106   0.01159   0.00314  -0.0115  0.2838  0.0233  -2.0045   0.0000   0.2039
  -3.800  -0.2889   0.01153   0.00305  -0.0114  0.2739  0.0242  -1.9015   0.0000   0.2017
  -3.600  -0.2670   0.01147   0.00297  -0.0112  0.2663  0.0254  -1.8000   0.0000   0.1989
  -3.400  -0.2451   0.01142   0.00289  -0.0111  0.2592  0.0265  -1.7003   0.0000   0.1956
  -3.200  -0.2232   0.01137   0.00281  -0.0109  0.2519  0.0275  -1.6022   0.0000   0.1917
  -3.000  -0.2012   0.01133   0.00275  -0.0108  0.2449  0.0283  -1.5093   0.0000   0.1868
  -2.800  -0.1791   0.01128   0.00268  -0.0107  0.2393  0.0293  -1.4214   0.0000   0.1806
  -2.600  -0.1570   0.01124   0.00262  -0.0106  0.2349  0.0308  -1.3349   0.0000   0.1725
  -2.400  -0.1349   0.01119   0.00256  -0.0105  0.2294  0.0326  -1.2500   0.0000   0.1619
  -2.200  -0.1128   0.01116   0.00252  -0.0104  0.2242  0.0341  -1.1666   0.0000   0.1470
  -2.000  -0.0906   0.01113   0.00247  -0.0103  0.2201  0.0353  -1.0845   0.0000   0.1244
  -1.800  -0.0684   0.01109   0.00243  -0.0102  0.2170  0.0372  -1.0046   0.0000   0.0872
  -1.600  -0.0462   0.01106   0.00239  -0.0101  0.2135  0.0398  -0.9315   0.0000   0.0142
  -1.400  -0.0239   0.01103   0.00235  -0.0101  0.2094  0.0418  -0.8598   0.0000  -0.1949
  -1.200  -0.0017   0.01101   0.00233  -0.0100  0.2057  0.0442  -0.7894   0.0000  -5.7892
  -1.000   0.0206   0.01098   0.00230  -0.0099  0.2036  0.0474  -0.7202   0.0000   0.7455
  -0.800   0.0429   0.01096   0.00228  -0.0098  0.2012  0.0506  -0.7058   0.0000   0.4824
  -0.600   0.0652   0.01094   0.00226  -0.0098  0.1979  0.0543  -0.7337   0.0000   0.3995
  -0.400   0.0874   0.01093   0.00225  -0.0097  0.1946  0.0588  -0.7618   0.0000   0.3588
  -0.200   0.1097   0.01091   0.00224  -0.0097  0.1921  0.0641  -0.7901   0.0000   0.3347
   0.000   0.1320   0.01089   0.00223  -0.0096  0.1903  0.0706  -0.8186   0.0000   0.3187
   0.200   0.1542   0.01086   0.00222  -0.0095  0.1880  0.0789  -0.8483   0.0000   0.3073
   0.400   0.1763   0.01084   0.00222  -0.0094  0.1851  0.0923  -0.8782   0.0000   0.2987
   0.600   0.1930   0.01014   0.00207  -0.0087  0.1827  0.2810  -0.9039   0.0000   0.2896
   0.800   0.2127   0.00982   0.00204  -0.0083  0.1805  0.3664  -0.9323   0.0000   0.2833
   1.000   0.2337   0.00967   0.00204  -0.0081  0.1789  0.4145  -0.9620   0.0000   0.2787
   1.200   0.2559   0.00965   0.00206  -0.0080  0.1768  0.4306  -0.9935   0.0000   0.2752
   1.400   0.2783   0.00969   0.00209  -0.0080  0.1742  0.4388  -1.0261   0.0000   0.2724
   1.600   0.3007   0.00972   0.00212  -0.0080  0.1718  0.4463  -1.0589   0.0000   0.2701
   1.800   0.3232   0.00975   0.00216  -0.0079  0.1695  0.4549  -1.0920   0.0000   0.2680
   2.000   0.3456   0.00977   0.00220  -0.0079  0.1680  0.4632  -1.1252   0.0000   0.2662
   2.200   0.3680   0.00981   0.00224  -0.0079  0.1660  0.4719  -1.1593   0.0000   0.2646
   2.400   0.3902   0.00986   0.00229  -0.0079  0.1636  0.4811  -1.1944   0.0000   0.2631
   2.600   0.4125   0.00989   0.00234  -0.0078  0.1613  0.4902  -1.2297   0.0000   0.2618
   2.800   0.4348   0.00993   0.00240  -0.0078  0.1592  0.4998  -1.2652   0.0000   0.2606
   3.000   0.4571   0.00997   0.00246  -0.0078  0.1577  0.5095  -1.3009   0.0000   0.2595
   3.200   0.4792   0.01002   0.00252  -0.0078  0.1557  0.5196  -1.3376   0.0000   0.2585
   3.400   0.5013   0.01008   0.00259  -0.0077  0.1535  0.5297  -1.3752   0.0000   0.2575
   3.600   0.5235   0.01012   0.00266  -0.0077  0.1513  0.5402  -1.4132   0.0000   0.2566
   3.800   0.5455   0.01017   0.00273  -0.0076  0.1493  0.5511  -1.4513   0.0000   0.2558
   4.000   0.5676   0.01022   0.00281  -0.0076  0.1479  0.5618  -1.4897   0.0000   0.2550
   4.200   0.5896   0.01029   0.00289  -0.0075  0.1459  0.5730  -1.5293   0.0000   0.2543
   4.400   0.6114   0.01035   0.00297  -0.0075  0.1437  0.5846  -1.5697   0.0000   0.2535
   4.600   0.6333   0.01042   0.00306  -0.0074  0.1416  0.5962  -1.6104   0.0000   0.2528
   4.800   0.6552   0.01048   0.00316  -0.0073  0.1398  0.6081  -1.6514   0.0000   0.2521
   5.000   0.6770   0.01054   0.00325  -0.0072  0.1383  0.6203  -1.6925   0.0000   0.2515
   5.200   0.6986   0.01062   0.00336  -0.0072  0.1362  0.6327  -1.7356   0.0000   0.2508
   5.400   0.7202   0.01070   0.00346  -0.0071  0.1341  0.6454  -1.7789   0.0000   0.2502
   5.600   0.7418   0.01078   0.00357  -0.0070  0.1320  0.6584  -1.8225   0.0000   0.2496
   5.800   0.7633   0.01085   0.00369  -0.0069  0.1305  0.6718  -1.8663   0.0000   0.2490
   6.000   0.7847   0.01093   0.00381  -0.0067  0.1286  0.6853  -1.9116   0.0000   0.2484
   6.200   0.8059   0.01103   0.00394  -0.0066  0.1264  0.6991  -1.9576   0.0000   0.2478
   6.400   0.8271   0.01112   0.00407  -0.0064  0.1244  0.7131  -2.0039   0.0000   0.2472
   6.600   0.8483   0.01121   0.00420  -0.0063  0.1227  0.7274  -2.0506   0.0000   0.2466
   6.800   0.8694   0.01130   0.00434  -0.0061  0.1209  0.7420  -2.0987   0.0000   0.2460
   7.000   0.8902   0.01141   0.00449  -0.0059  0.1186  0.7568  -2.1476   0.0000   0.2453
   7.200   0.9109   0.01153   0.00464  -0.0057  0.1165  0.7718  -2.1967   0.0000   0.2447
   7.400   0.9317   0.01163   0.00480  -0.0055  0.1148  0.7868  -2.2462   0.0000   0.2441
   7.600   0.9522   0.01174   0.00496  -0.0052  0.1129  0.8019  -2.2980   0.0000   0.2435
   7.800   0.9724   0.01187   0.00513  -0.0049  0.1105  0.8171  -2.3497   0.0000   0.2428
   8.000   0.9925   0.01201   0.00531  -0.0046  0.1084  0.8323  -2.4016   0.0000   0.2421
   8.200   1.0126   0.01213   0.00548  -0.0042  0.1066  0.8473  -2.4558   0.0000   0.2414
   8.400   1.0325   0.01227   0.00568  -0.0039  0.1044  0.8621  -2.5104   0.0000   0.2407
   8.600   1.0519   0.01244   0.00588  -0.0034  0.1018  0.8765  -2.5649   0.0000   0.2400
   8.800   1.0712   0.01260   0.00608  -0.0030  0.0998  0.8904  -2.6222   0.0000   0.2392
   9.000   1.0904   0.01276   0.00629  -0.0025  0.0977  0.9036  -2.6796   0.0000   0.2385
   9.200   1.1092   0.01296   0.00651  -0.0019  0.0951  0.9163  -2.7386   0.0000   0.2377
   9.400   1.1279   0.01317   0.00675  -0.0014  0.0926  0.9282  -2.7987   0.0000   0.2369
   9.600   1.1469   0.01337   0.00698  -0.0009  0.0903  0.9391  -2.8617   0.0000   0.2361
   9.800   1.1660   0.01361   0.00723  -0.0005  0.0873  0.9490  -2.9264   0.0000   0.2355
  10.000   1.1855   0.01388   0.00750  -0.0002  0.0847  0.9577  -2.9953   0.0000   0.2350
  10.200   1.2055   0.01415   0.00778  -0.0001  0.0816  0.9652  -3.0680   0.0000   0.2345
  10.400   1.2253   0.01446   0.00808   0.0001  0.0782  0.9720  -3.1438   0.0000   0.2341
  10.600   1.2455   0.01477   0.00839   0.0001  0.0750  0.9777  -3.2246   0.0000   0.2338
  10.800   1.2648   0.01513   0.00873   0.0002  0.0712  0.9832  -3.3075   0.0000   0.2334
  11.000   1.2838   0.01547   0.00908   0.0004  0.0674  0.9884  -3.3952   0.0000   0.2329
  11.200   1.3018   0.01587   0.00946   0.0007  0.0635  0.9936  -3.4840   0.0000   0.2324
  11.400   1.3192   0.01628   0.00986   0.0011  0.0594  0.9988  -3.5748   0.0000   0.2318
  11.600   1.3328   0.01668   0.01025   0.0023  0.0558  1.0000  -3.6598   0.0000   0.2306
  11.800   1.3439   0.01711   0.01068   0.0039  0.0522  1.0000  -3.7417   0.0000   0.2290
  12.000   1.3552   0.01753   0.01110   0.0055  0.0490  1.0000  -3.8249   0.0000   0.2276
  12.200   1.3658   0.01802   0.01158   0.0071  0.0457  1.0000  -3.9084   0.0000   0.2261
  12.400   1.3772   0.01850   0.01207   0.0084  0.0428  1.0000  -3.9981   0.0000   0.2248
  12.600   1.3876   0.01905   0.01262   0.0099  0.0400  1.0000  -4.0858   0.0000   0.2235
  12.800   1.3986   0.01959   0.01318   0.0111  0.0376  1.0000  -4.1757   0.0000   0.2222
  13.000   1.4087   0.02020   0.01380   0.0124  0.0353  1.0000  -4.2635   0.0000   0.2210
  13.200   1.4190   0.02082   0.01443   0.0136  0.0331  1.0000  -4.3568   0.0000   0.2199
  13.400   1.4285   0.02151   0.01514   0.0148  0.0312  1.0000  -4.4495   0.0000   0.2187
  13.600   1.4380   0.02222   0.01587   0.0159  0.0295  1.0000  -4.5426   0.0000   0.2177
  13.800   1.4472   0.02298   0.01666   0.0169  0.0279  1.0000  -4.6353   0.0000   0.2166
  14.000   1.4556   0.02382   0.01753   0.0179  0.0266  1.0000  -4.7259   0.0000   0.2156
  14.200   1.4639   0.02470   0.01844   0.0188  0.0253  1.0000  -4.8166   0.0000   0.2147
  14.400   1.4713   0.02569   0.01945   0.0196  0.0239  1.0000  -4.9045   0.0000   0.2137
  14.600   1.4778   0.02678   0.02058   0.0204  0.0226  1.0000  -4.9950   0.0000   0.2128
  14.800   1.4847   0.02789   0.02173   0.0210  0.0218  1.0000  -5.0874   0.0000   0.2121
  15.000   1.4914   0.02905   0.02293   0.0215  0.0212  1.0000  -5.1794   0.0000   0.2113
  15.200   1.4970   0.03037   0.02430   0.0220  0.0204  1.0000  -5.2671   0.0000   0.2106
  15.400   1.5011   0.03187   0.02585   0.0223  0.0194  1.0000  -5.3493   0.0000   0.2100
  15.600   1.5038   0.03356   0.02759   0.0225  0.0186  1.0000  -5.4260   0.0000   0.2094
  15.800   1.5065   0.03532   0.02940   0.0226  0.0178  1.0000  -5.5025   0.0000   0.2089
  16.000   1.5085   0.03722   0.03135   0.0226  0.0172  1.0000  -5.5757   0.0000   0.2085
  16.200   1.5094   0.03930   0.03350   0.0224  0.0166  1.0000  -5.6443   0.0000   0.2081
  16.400   1.5094   0.04153   0.03580   0.0220  0.0163  1.0000  -5.7084   0.0000   0.2078
  16.600   1.5081   0.04399   0.03832   0.0216  0.0159  1.0000  -5.7664   0.0000   0.2076
  16.800   1.5052   0.04670   0.04111   0.0209  0.0156  1.0000  -5.8168   0.0000   0.2075
  17.000   1.5005   0.04970   0.04419   0.0201  0.0153  1.0000  -5.8623   0.0000   0.2075
  17.200   1.4938   0.05302   0.04759   0.0191  0.0150  1.0000  -5.8972   0.0000   0.2075
  17.400   1.4859   0.05657   0.05123   0.0180  0.0148  1.0000  -5.9257   0.0000   0.2077
  17.600   1.4761   0.06047   0.05522   0.0166  0.0145  1.0000  -5.9433   0.0000   0.2080
  17.800   1.4640   0.06474   0.05958   0.0151  0.0143  1.0000  -5.9475   0.0000   0.2084
  18.000   1.4495   0.06940   0.06435   0.0134  0.0141  1.0000  -5.9385   0.0000   0.2089
  18.200   1.4329   0.07445   0.06951   0.0115  0.0139  1.0000  -5.9165   0.0000   0.2096
  18.400   1.4142   0.07987   0.07503   0.0094  0.0138  1.0000  -5.8812   0.0000   0.2104
  18.600   1.3937   0.08561   0.08089   0.0071  0.0137  1.0000  -5.8339   0.0000   0.2114
  18.800   1.3723   0.09159   0.08699   0.0047  0.0136  1.0000  -5.7784   0.0000   0.2125
  19.000   1.3506   0.09768   0.09319   0.0022  0.0135  1.0000  -5.7182   0.0000   0.2138
  19.200   1.3291   0.10377   0.09939  -0.0003  0.0135  1.0000  -5.6563   0.0000   0.2151
  19.400   1.3084   0.10989   0.10560  -0.0029  0.0134  1.0000  -5.5942   0.0000   0.2167
  19.600   1.2895   0.11578   0.11159  -0.0056  0.0133  1.0000  -5.5389   0.0000   0.2182
  19.800   1.2722   0.12143   0.11733  -0.0081  0.0131  1.0000  -5.4899   0.0000   0.2198
  20.000   1.2566   0.12690   0.12287  -0.0107  0.0129  1.0000  -5.4474   0.0000   0.2215
  20.200   1.2426   0.13219   0.12824  -0.0133  0.0127  1.0000  -5.4109   0.0000   0.2232
  20.400   1.2301   0.13729   0.13341  -0.0159  0.0125  1.0000  -5.3802   0.0000   0.2249
  20.600   1.2193   0.14215   0.13833  -0.0184  0.0122  1.0000  -5.3568   0.0000   0.2266
  20.800   1.2106   0.14663   0.14287  -0.0207  0.0120  1.0000  -5.3452   0.0000   0.2282
  21.000   1.2024   0.15112   0.14742  -0.0232  0.0118  1.0000  -5.3332   0.0000   0.2298
  21.200   1.1966   0.15521   0.15156  -0.0255  0.0117  1.0000  -5.3351   0.0000   0.2314
  21.400   1.1915   0.15922   0.15562  -0.0278  0.0115  1.0000  -5.3393   0.0000   0.2329
  21.600   1.1874   0.16307   0.15951  -0.0301  0.0114  1.0000  -5.3484   0.0000   0.2344
  21.800   1.1837   0.16687   0.16336  -0.0324  0.0112  1.0000  -5.3588   0.0000   0.2359
  22.000   1.1811   0.17049   0.16702  -0.0346  0.0110  1.0000  -5.3748   0.0000   0.2374
  22.200   1.1779   0.17422   0.17080  -0.0369  0.0109  1.0000  -5.3854   0.0000   0.2390
  22.400   1.1764   0.17762   0.17424  -0.0391  0.0107  1.0000  -5.4069   0.0000   0.2403
  22.600   1.1737   0.18130   0.17796  -0.0415  0.0105  1.0000  -5.4174   0.0000   0.2420
  22.800   1.1725   0.18470   0.18140  -0.0438  0.0102  1.0000  -5.4379   0.0000   0.2434
  23.000   1.1708   0.18823   0.18497  -0.0462  0.0100  1.0000  -5.4533   0.0000   0.2450
  23.200   1.1690   0.19183   0.18860  -0.0486  0.0097  1.0000  -5.4653   0.0000   0.2466
  23.400   1.1682   0.19523   0.19203  -0.0510  0.0094  1.0000  -5.4852   0.0000   0.2482
  23.600   1.1663   0.19892   0.19575  -0.0536  0.0091  1.0000  -5.4964   0.0000   0.2500
  23.800   1.1666   0.20211   0.19897  -0.0559  0.0089  1.0000  -5.5266   0.0000   0.2514
  24.000   1.1669   0.20530   0.20220  -0.0582  0.0086  1.0000  -5.5560   0.0000   0.2528
  24.200   1.1666   0.20868   0.20561  -0.0607  0.0084  1.0000  -5.5767   0.0000   0.2544
  24.400   1.1675   0.21177   0.20874  -0.0630  0.0082  1.0000  -5.6089   0.0000   0.2558
  24.600   1.1685   0.21486   0.21186  -0.0654  0.0080  1.0000  -5.6404   0.0000   0.2573
  24.800   1.1687   0.21812   0.21515  -0.0679  0.0078  1.0000  -5.6628   0.0000   0.2588
  25.000   1.1701   0.22115   0.21821  -0.0702  0.0077  1.0000  -5.6953   0.0000   0.2602


