xflr5 v6.47

 Calculated polar for: NACA 23015

 1 1 Reynolds number fixed          Mach number fixed         

 xtrf =   1.000 (top)        1.000 (bottom)
 Mach =   0.000     Re =     3.500 e 6     Ncrit =   1.000

  alpha     CL        CD       CDp       Cm    Top Xtr Bot Xtr   Cpmin    Chinge    XCp    
 ------- -------- --------- --------- -------- ------- ------- -------- --------- ---------
 -10.000  -0.9696   0.01202   0.00599  -0.0154  0.5881  0.0096  -6.3784   0.0000   0.2219
  -9.800  -0.9491   0.01186   0.00579  -0.0151  0.5753  0.0097  -6.2010   0.0000   0.2221
  -9.600  -0.9285   0.01170   0.00560  -0.0148  0.5628  0.0099  -6.0251   0.0000   0.2223
  -9.400  -0.9077   0.01155   0.00542  -0.0145  0.5506  0.0101  -5.8509   0.0000   0.2225
  -9.200  -0.8869   0.01140   0.00524  -0.0142  0.5388  0.0103  -5.6783   0.0000   0.2227
  -8.800  -0.8449   0.01113   0.00490  -0.0136  0.5131  0.0107  -5.3381   0.0000   0.2229
  -8.600  -0.8238   0.01099   0.00473  -0.0133  0.5013  0.0110  -5.1705   0.0000   0.2230
  -8.400  -0.8026   0.01086   0.00457  -0.0131  0.4898  0.0113  -5.0047   0.0000   0.2230
  -8.200  -0.7812   0.01073   0.00442  -0.0129  0.4786  0.0115  -4.8407   0.0000   0.2230
  -8.000  -0.7598   0.01062   0.00427  -0.0126  0.4675  0.0117  -4.6785   0.0000   0.2230
  -7.600  -0.7166   0.01042   0.00400  -0.0123  0.4425  0.0119  -4.3664   0.0000   0.2228
  -7.400  -0.6950   0.01032   0.00388  -0.0121  0.4310  0.0121  -4.2195   0.0000   0.2227
  -7.200  -0.6733   0.01022   0.00375  -0.0119  0.4195  0.0123  -4.0745   0.0000   0.2225
  -7.000  -0.6516   0.01013   0.00362  -0.0117  0.4076  0.0126  -3.9312   0.0000   0.2223
  -6.800  -0.6298   0.01004   0.00350  -0.0116  0.3953  0.0128  -3.7898   0.0000   0.2221
  -6.600  -0.6080   0.00996   0.00339  -0.0114  0.3823  0.0131  -3.6502   0.0000   0.2218
  -6.400  -0.5863   0.00990   0.00328  -0.0112  0.3635  0.0134  -3.5128   0.0000   0.2215
  -6.200  -0.5647   0.00988   0.00318  -0.0110  0.3352  0.0137  -3.3781   0.0000   0.2212
  -6.000  -0.5432   0.00987   0.00308  -0.0109  0.3030  0.0139  -3.2454   0.0000   0.2209
  -5.800  -0.5214   0.00985   0.00300  -0.0107  0.2777  0.0142  -3.1141   0.0000   0.2204
  -5.600  -0.4995   0.00981   0.00291  -0.0106  0.2602  0.0147  -2.9841   0.0000   0.2199
  -5.400  -0.4774   0.00975   0.00282  -0.0104  0.2510  0.0151  -2.8554   0.0000   0.2192
  -5.200  -0.4552   0.00968   0.00273  -0.0103  0.2426  0.0157  -2.7287   0.0000   0.2184
  -5.000  -0.4329   0.00961   0.00265  -0.0103  0.2374  0.0161  -2.6038   0.0000   0.2175
  -4.800  -0.4106   0.00955   0.00257  -0.0102  0.2320  0.0165  -2.4828   0.0000   0.2164
  -4.600  -0.3882   0.00949   0.00250  -0.0101  0.2259  0.0169  -2.3701   0.0000   0.2152
  -4.400  -0.3658   0.00944   0.00243  -0.0101  0.2212  0.0173  -2.2588   0.0000   0.2138
  -4.200  -0.3432   0.00938   0.00237  -0.0100  0.2177  0.0177  -2.1493   0.0000   0.2121
  -4.000  -0.3207   0.00933   0.00230  -0.0100  0.2142  0.0180  -2.0415   0.0000   0.2102
  -3.800  -0.2981   0.00928   0.00224  -0.0099  0.2105  0.0186  -1.9355   0.0000   0.2079
  -3.600  -0.2757   0.00922   0.00218  -0.0099  0.2056  0.0199  -1.8315   0.0000   0.2054
  -3.400  -0.2530   0.00917   0.00213  -0.0098  0.2036  0.0208  -1.7289   0.0000   0.2022
  -3.200  -0.2303   0.00912   0.00208  -0.0098  0.2016  0.0212  -1.6281   0.0000   0.1983
  -3.000  -0.2076   0.00908   0.00203  -0.0098  0.1984  0.0217  -1.5303   0.0000   0.1935
  -2.800  -0.1849   0.00906   0.00199  -0.0098  0.1941  0.0221  -1.4406   0.0000   0.1876
  -2.600  -0.1622   0.00902   0.00195  -0.0098  0.1919  0.0229  -1.3521   0.0000   0.1798
  -2.400  -0.1395   0.00897   0.00190  -0.0098  0.1906  0.0247  -1.2651   0.0000   0.1696
  -2.200  -0.1167   0.00893   0.00187  -0.0098  0.1884  0.0258  -1.1797   0.0000   0.1553
  -2.000  -0.0939   0.00892   0.00184  -0.0098  0.1845  0.0264  -1.0962   0.0000   0.1340
  -1.800  -0.0711   0.00889   0.00181  -0.0098  0.1818  0.0272  -1.0141   0.0000   0.0989
  -1.600  -0.0483   0.00886   0.00178  -0.0098  0.1801  0.0287  -0.9387   0.0000   0.0305
  -1.200  -0.0027   0.00881   0.00174  -0.0099  0.1761  0.0322  -0.7939   0.0000  -3.6321
  -1.000   0.0201   0.00881   0.00172  -0.0099  0.1729  0.0333  -0.7237   0.0000   0.7559
  -0.800   0.0430   0.00879   0.00171  -0.0099  0.1706  0.0353  -0.7060   0.0000   0.4839
  -0.600   0.0658   0.00877   0.00169  -0.0100  0.1691  0.0382  -0.7343   0.0000   0.4007
  -0.400   0.0888   0.00875   0.00169  -0.0100  0.1678  0.0397  -0.7630   0.0000   0.3605
  -0.200   0.1115   0.00875   0.00168  -0.0100  0.1650  0.0424  -0.7917   0.0000   0.3366
   0.000   0.1344   0.00875   0.00168  -0.0101  0.1624  0.0457  -0.8207   0.0000   0.3209
   0.200   0.1572   0.00874   0.00168  -0.0101  0.1602  0.0484  -0.8510   0.0000   0.3098
   0.400   0.1801   0.00873   0.00168  -0.0101  0.1588  0.0527  -0.8817   0.0000   0.3015
   0.600   0.2030   0.00873   0.00168  -0.0102  0.1575  0.0566  -0.9126   0.0000   0.2950
   0.800   0.2257   0.00873   0.00169  -0.0102  0.1547  0.0627  -0.9435   0.0000   0.2898
   1.000   0.2484   0.00873   0.00170  -0.0102  0.1525  0.0690  -0.9748   0.0000   0.2856
   1.200   0.2712   0.00873   0.00172  -0.0103  0.1503  0.0778  -1.0074   0.0000   0.2820
   1.400   0.2938   0.00870   0.00173  -0.0103  0.1490  0.0967  -1.0402   0.0000   0.2789
   1.600   0.3112   0.00801   0.00163  -0.0096  0.1478  0.3201  -1.0685   0.0000   0.2745
   1.800   0.3331   0.00793   0.00165  -0.0095  0.1453  0.3598  -1.1011   0.0000   0.2720
   2.000   0.3558   0.00794   0.00168  -0.0095  0.1431  0.3696  -1.1348   0.0000   0.2702
   2.200   0.3788   0.00798   0.00171  -0.0096  0.1410  0.3744  -1.1699   0.0000   0.2686
   2.600   0.4246   0.00804   0.00178  -0.0098  0.1383  0.3869  -1.2416   0.0000   0.2659
   2.800   0.4473   0.00809   0.00183  -0.0098  0.1357  0.3937  -1.2776   0.0000   0.2647
   3.000   0.4701   0.00813   0.00188  -0.0099  0.1337  0.4002  -1.3140   0.0000   0.2636
   3.200   0.4928   0.00816   0.00192  -0.0099  0.1317  0.4077  -1.3518   0.0000   0.2626
   3.600   0.5383   0.00824   0.00202  -0.0101  0.1288  0.4227  -1.4289   0.0000   0.2608
   3.800   0.5608   0.00831   0.00215  -0.0101  0.1261  0.4294  -1.4677   0.0000   0.2600
   4.000   0.5834   0.00835   0.00214  -0.0102  0.1243  0.4388  -1.5068   0.0000   0.2592
   4.200   0.6061   0.00840   0.00219  -0.0102  0.1225  0.4458  -1.5478   0.0000   0.2585
   4.400   0.6287   0.00844   0.00225  -0.0103  0.1215  0.4544  -1.5892   0.0000   0.2578
   4.600   0.6511   0.00851   0.00232  -0.0103  0.1190  0.4631  -1.6305   0.0000   0.2571
   4.800   0.6735   0.00857   0.00240  -0.0103  0.1167  0.4713  -1.6723   0.0000   0.2564
   5.000   0.6959   0.00862   0.00247  -0.0104  0.1149  0.4815  -1.7149   0.0000   0.2558
   5.200   0.7183   0.00868   0.00254  -0.0104  0.1137  0.4899  -1.7591   0.0000   0.2552
   5.400   0.7406   0.00875   0.00262  -0.0104  0.1117  0.4988  -1.8035   0.0000   0.2546
   5.600   0.7626   0.00883   0.00271  -0.0104  0.1089  0.5097  -1.8478   0.0000   0.2540
   5.800   0.7849   0.00890   0.00279  -0.0104  0.1071  0.5187  -1.8928   0.0000   0.2534
   6.000   0.8072   0.00896   0.00288  -0.0105  0.1058  0.5281  -1.9400   0.0000   0.2529
   6.200   0.8292   0.00904   0.00297  -0.0104  0.1038  0.5396  -1.9873   0.0000   0.2523
   6.400   0.8509   0.00914   0.00308  -0.0104  0.1008  0.5497  -2.0345   0.0000   0.2517
   6.600   0.8730   0.00922   0.00317  -0.0104  0.0991  0.5599  -2.0825   0.0000   0.2512
   6.800   0.8950   0.00929   0.00327  -0.0104  0.0977  0.5706  -2.1329   0.0000   0.2507
   7.000   0.9166   0.00939   0.00339  -0.0103  0.0950  0.5831  -2.1831   0.0000   0.2501
   7.200   0.9381   0.00950   0.00351  -0.0103  0.0924  0.5943  -2.2335   0.0000   0.2495
   7.400   0.9599   0.00959   0.00362  -0.0102  0.0908  0.6055  -2.2857   0.0000   0.2490
   7.600   0.9814   0.00969   0.00374  -0.0102  0.0885  0.6171  -2.3392   0.0000   0.2485
   7.800   1.0025   0.00983   0.00389  -0.0100  0.0854  0.6294  -2.3924   0.0000   0.2479
   8.000   1.0239   0.00993   0.00401  -0.0100  0.0834  0.6428  -2.4473   0.0000   0.2474
   8.200   1.0451   0.01005   0.00416  -0.0099  0.0809  0.6564  -2.5038   0.0000   0.2468
   8.400   1.0658   0.01020   0.00432  -0.0097  0.0777  0.6698  -2.5602   0.0000   0.2462
   8.600   1.0869   0.01032   0.00446  -0.0096  0.0757  0.6833  -2.6189   0.0000   0.2457
   8.800   1.1072   0.01049   0.00465  -0.0094  0.0719  0.6971  -2.6781   0.0000   0.2450
   9.200   1.1480   0.01082   0.00501  -0.0089  0.0656  0.7262  -2.8013   0.0000   0.2438
   9.400   1.1682   0.01098   0.00520  -0.0087  0.0626  0.7414  -2.8653   0.0000   0.2432
   9.600   1.1875   0.01121   0.00543  -0.0083  0.0581  0.7565  -2.9306   0.0000   0.2425
   9.800   1.2073   0.01140   0.00565  -0.0080  0.0547  0.7716  -2.9993   0.0000   0.2418
  10.200   1.2450   0.01189   0.00617  -0.0072  0.0464  0.8038  -3.1422   0.0000   0.2404
  10.400   1.2639   0.01212   0.00642  -0.0068  0.0429  0.8208  -3.2197   0.0000   0.2396
  10.600   1.2823   0.01237   0.00669  -0.0063  0.0395  0.8369  -3.3011   0.0000   0.2389
  10.800   1.3002   0.01265   0.00699  -0.0057  0.0358  0.8532  -3.3855   0.0000   0.2381
  11.000   1.3183   0.01289   0.00727  -0.0052  0.0330  0.8699  -3.4741   0.0000   0.2373
  11.200   1.3359   0.01316   0.00757  -0.0046  0.0303  0.8861  -3.5655   0.0000   0.2364
  11.400   1.3533   0.01342   0.00785  -0.0039  0.0280  0.9020  -3.6598   0.0000   0.2356
  11.600   1.3701   0.01369   0.00817  -0.0032  0.0259  0.9175  -3.7567   0.0000   0.2347
  11.800   1.3867   0.01395   0.00846  -0.0024  0.0241  0.9325  -3.8543   0.0000   0.2338
  12.000   1.4023   0.01424   0.00878  -0.0014  0.0225  0.9468  -3.9541   0.0000   0.2327
  12.400   1.4325   0.01484   0.00943   0.0007  0.0195  0.9732  -4.1577   0.0000   0.2305
  12.600   1.4486   0.01517   0.00977   0.0015  0.0184  0.9832  -4.2637   0.0000   0.2297
  12.800   1.4659   0.01547   0.01008   0.0020  0.0178  0.9912  -4.3790   0.0000   0.2290
  13.000   1.4821   0.01583   0.01044   0.0026  0.0168  0.9988  -4.4942   0.0000   0.2282
  13.200   1.4938   0.01626   0.01087   0.0040  0.0154  1.0000  -4.5965   0.0000   0.2269
  13.400   1.5065   0.01664   0.01126   0.0052  0.0145  1.0000  -4.7027   0.0000   0.2257
  13.600   1.5196   0.01702   0.01165   0.0064  0.0141  1.0000  -4.8113   0.0000   0.2246
  13.800   1.5327   0.01741   0.01206   0.0074  0.0139  1.0000  -4.9208   0.0000   0.2236
  14.000   1.5449   0.01786   0.01251   0.0086  0.0134  1.0000  -5.0342   0.0000   0.2225
  14.200   1.5559   0.01839   0.01306   0.0098  0.0126  1.0000  -5.1448   0.0000   0.2214
  14.400   1.5667   0.01895   0.01363   0.0109  0.0118  1.0000  -5.2554   0.0000   0.2203
  14.600   1.5776   0.01952   0.01421   0.0120  0.0112  1.0000  -5.3673   0.0000   0.2193
  14.800   1.5882   0.02012   0.01483   0.0130  0.0107  1.0000  -5.4792   0.0000   0.2183
  15.000   1.5986   0.02076   0.01549   0.0140  0.0104  1.0000  -5.5910   0.0000   0.2173
  15.200   1.6085   0.02145   0.01620   0.0150  0.0101  1.0000  -5.7015   0.0000   0.2164
  15.400   1.6179   0.02220   0.01697   0.0159  0.0098  1.0000  -5.8107   0.0000   0.2154
  15.600   1.6267   0.02302   0.01782   0.0167  0.0095  1.0000  -5.9184   0.0000   0.2145
  15.800   1.6353   0.02388   0.01871   0.0175  0.0092  1.0000  -6.0286   0.0000   0.2137
  16.000   1.6435   0.02482   0.01967   0.0182  0.0090  1.0000  -6.1414   0.0000   0.2128
  16.200   1.6508   0.02585   0.02073   0.0188  0.0087  1.0000  -6.2514   0.0000   0.2120
  16.400   1.6570   0.02701   0.02192   0.0194  0.0083  1.0000  -6.3568   0.0000   0.2112
  16.600   1.6622   0.02830   0.02324   0.0200  0.0079  1.0000  -6.4582   0.0000   0.2105
  16.800   1.6660   0.02977   0.02475   0.0204  0.0075  1.0000  -6.5540   0.0000   0.2098
  17.000   1.6695   0.03133   0.02635   0.0207  0.0072  1.0000  -6.6477   0.0000   0.2091
  17.200   1.6727   0.03296   0.02801   0.0209  0.0070  1.0000  -6.7408   0.0000   0.2086
  17.400   1.6755   0.03470   0.02980   0.0209  0.0069  1.0000  -6.8314   0.0000   0.2080
  17.600   1.6774   0.03658   0.03173   0.0209  0.0068  1.0000  -6.9180   0.0000   0.2076
  17.800   1.6783   0.03862   0.03382   0.0207  0.0067  1.0000  -6.9998   0.0000   0.2072
  18.000   1.6778   0.04084   0.03609   0.0204  0.0066  1.0000  -7.0749   0.0000   0.2068
  18.200   1.6761   0.04329   0.03859   0.0200  0.0066  1.0000  -7.1435   0.0000   0.2065
  18.400   1.6731   0.04596   0.04133   0.0194  0.0065  1.0000  -7.2047   0.0000   0.2063
  18.600   1.6686   0.04887   0.04430   0.0186  0.0065  1.0000  -7.2579   0.0000   0.2061
  18.800   1.6616   0.05211   0.04761   0.0178  0.0064  1.0000  -7.2982   0.0000   0.2060
  19.000   1.6531   0.05564   0.05121   0.0167  0.0064  1.0000  -7.3291   0.0000   0.2060
  19.200   1.6427   0.05949   0.05513   0.0155  0.0063  1.0000  -7.3489   0.0000   0.2061
  19.400   1.6294   0.06373   0.05946   0.0141  0.0063  1.0000  -7.3526   0.0000   0.2063
  19.600   1.6133   0.06843   0.06425   0.0124  0.0063  1.0000  -7.3393   0.0000   0.2067
  19.800   1.5948   0.07357   0.06948   0.0106  0.0062  1.0000  -7.3103   0.0000   0.2072
  20.000   1.5735   0.07914   0.07514   0.0085  0.0062  1.0000  -7.2638   0.0000   0.2078
  20.200   1.5496   0.08513   0.08124   0.0062  0.0062  1.0000  -7.2009   0.0000   0.2086
  20.400   1.5242   0.09147   0.08769   0.0037  0.0062  1.0000  -7.1253   0.0000   0.2096
  20.600   1.4979   0.09799   0.09432   0.0011  0.0062  1.0000  -7.0406   0.0000   0.2107
  20.800   1.4718   0.10456   0.10099  -0.0016  0.0062  1.0000  -6.9534   0.0000   0.2120
  21.000   1.4449   0.11142   0.10795  -0.0046  0.0062  1.0000  -6.8560   0.0000   0.2135
  21.200   1.4223   0.11766   0.11428  -0.0074  0.0062  1.0000  -6.7813   0.0000   0.2150
  21.400   1.3990   0.12407   0.12079  -0.0104  0.0062  1.0000  -6.6978   0.0000   0.2166
  21.600   1.3791   0.13008   0.12689  -0.0134  0.0062  1.0000  -6.6312   0.0000   0.2183
  21.800   1.3620   0.13573   0.13260  -0.0162  0.0061  1.0000  -6.5787   0.0000   0.2200
  22.000   1.3479   0.14093   0.13787  -0.0190  0.0061  1.0000  -6.5424   0.0000   0.2216
  22.200   1.3357   0.14579   0.14279  -0.0216  0.0060  1.0000  -6.5167   0.0000   0.2232
  22.400   1.3228   0.15090   0.14796  -0.0244  0.0059  1.0000  -6.4814   0.0000   0.2250
  22.600   1.3116   0.15579   0.15291  -0.0273  0.0058  1.0000  -6.4551   0.0000   0.2267
  22.800   1.3045   0.15999   0.15715  -0.0298  0.0057  1.0000  -6.4557   0.0000   0.2282
  23.000   1.2946   0.16478   0.16199  -0.0327  0.0055  1.0000  -6.4319   0.0000   0.2301
  23.200   1.2885   0.16890   0.16615  -0.0353  0.0053  1.0000  -6.4344   0.0000   0.2317
  23.400   1.2805   0.17338   0.17068  -0.0382  0.0051  1.0000  -6.4195   0.0000   0.2336
  23.600   1.2747   0.17748   0.17482  -0.0409  0.0049  1.0000  -6.4190   0.0000   0.2353
  23.800   1.2695   0.18147   0.17885  -0.0435  0.0048  1.0000  -6.4218   0.0000   0.2370
  24.000   1.2674   0.18489   0.18230  -0.0459  0.0047  1.0000  -6.4480   0.0000   0.2383
  24.200   1.2626   0.18892   0.18637  -0.0487  0.0046  1.0000  -6.4481   0.0000   0.2401
  24.400   1.2619   0.19213   0.18961  -0.0510  0.0046  1.0000  -6.4824   0.0000   0.2414
  24.600   1.2582   0.19596   0.19349  -0.0537  0.0045  1.0000  -6.4884   0.0000   0.2431
  24.800   1.2575   0.19922   0.19677  -0.0561  0.0045  1.0000  -6.5191   0.0000   0.2445
  25.000   1.2576   0.20229   0.19987  -0.0584  0.0044  1.0000  -6.5567   0.0000   0.2457


