xflr5 v6.47

 Calculated polar for: NACA 23015

 1 1 Reynolds number fixed          Mach number fixed         

 xtrf =   1.000 (top)        1.000 (bottom)
 Mach =   0.000     Re =     1.100 e 6     Ncrit =   1.000

  alpha     CL        CD       CDp       Cm    Top Xtr Bot Xtr   Cpmin    Chinge    XCp    
 ------- -------- --------- --------- -------- ------- ------- -------- --------- ---------
 -10.000  -0.9314   0.01499   0.00839  -0.0211  0.7625  0.0120  -6.1626   0.0000   0.2150
  -9.800  -0.9125   0.01477   0.00810  -0.0205  0.7455  0.0122  -5.9957   0.0000   0.2154
  -9.600  -0.8933   0.01456   0.00782  -0.0200  0.7289  0.0124  -5.8297   0.0000   0.2157
  -9.400  -0.8740   0.01435   0.00756  -0.0195  0.7125  0.0126  -5.6647   0.0000   0.2160
  -9.200  -0.8544   0.01416   0.00730  -0.0190  0.6965  0.0128  -5.5010   0.0000   0.2163
  -9.000  -0.8347   0.01397   0.00705  -0.0185  0.6807  0.0130  -5.3385   0.0000   0.2165
  -8.800  -0.8148   0.01378   0.00681  -0.0181  0.6653  0.0132  -5.1773   0.0000   0.2166
  -8.600  -0.7948   0.01361   0.00657  -0.0177  0.6501  0.0134  -5.0175   0.0000   0.2168
  -8.400  -0.7746   0.01344   0.00635  -0.0173  0.6352  0.0136  -4.8592   0.0000   0.2169
  -8.200  -0.7543   0.01327   0.00613  -0.0169  0.6206  0.0138  -4.7024   0.0000   0.2169
  -8.000  -0.7339   0.01312   0.00592  -0.0165  0.6063  0.0140  -4.5472   0.0000   0.2170
  -7.800  -0.7134   0.01297   0.00572  -0.0162  0.5922  0.0142  -4.3966   0.0000   0.2169
  -7.600  -0.6928   0.01282   0.00552  -0.0159  0.5783  0.0145  -4.2540   0.0000   0.2169
  -7.400  -0.6721   0.01268   0.00533  -0.0155  0.5645  0.0147  -4.1127   0.0000   0.2168
  -7.200  -0.6512   0.01255   0.00514  -0.0152  0.5509  0.0150  -3.9729   0.0000   0.2167
  -7.000  -0.6305   0.01241   0.00496  -0.0149  0.5375  0.0155  -3.8346   0.0000   0.2165
  -6.800  -0.6096   0.01227   0.00479  -0.0146  0.5241  0.0160  -3.6978   0.0000   0.2163
  -6.600  -0.5886   0.01215   0.00462  -0.0143  0.5108  0.0165  -3.5627   0.0000   0.2160
  -6.400  -0.5675   0.01204   0.00446  -0.0141  0.4974  0.0169  -3.4294   0.0000   0.2157
  -6.200  -0.5463   0.01193   0.00431  -0.0138  0.4840  0.0172  -3.2978   0.0000   0.2153
  -6.000  -0.5250   0.01183   0.00416  -0.0136  0.4704  0.0175  -3.1679   0.0000   0.2148
  -5.800  -0.5036   0.01174   0.00402  -0.0134  0.4567  0.0178  -3.0397   0.0000   0.2142
  -5.600  -0.4823   0.01166   0.00389  -0.0131  0.4425  0.0181  -2.9133   0.0000   0.2136
  -5.400  -0.4608   0.01159   0.00376  -0.0129  0.4277  0.0184  -2.7886   0.0000   0.2128
  -5.200  -0.4395   0.01152   0.00364  -0.0127  0.4087  0.0189  -2.6662   0.0000   0.2121
  -5.000  -0.4186   0.01151   0.00353  -0.0124  0.3772  0.0198  -2.5466   0.0000   0.2113
  -4.800  -0.3978   0.01153   0.00343  -0.0121  0.3411  0.0207  -2.4350   0.0000   0.2105
  -4.600  -0.3767   0.01154   0.00333  -0.0119  0.3113  0.0214  -2.3269   0.0000   0.2095
  -4.400  -0.3552   0.01150   0.00323  -0.0117  0.2948  0.0219  -2.2194   0.0000   0.2082
  -4.200  -0.3334   0.01145   0.00314  -0.0115  0.2848  0.0223  -2.1130   0.0000   0.2065
  -4.000  -0.3116   0.01139   0.00305  -0.0114  0.2754  0.0228  -2.0082   0.0000   0.2045
  -3.800  -0.2897   0.01133   0.00297  -0.0112  0.2672  0.0235  -1.9049   0.0000   0.2022
  -3.600  -0.2678   0.01127   0.00289  -0.0111  0.2600  0.0247  -1.8032   0.0000   0.1995
  -3.400  -0.2458   0.01122   0.00281  -0.0110  0.2533  0.0259  -1.7031   0.0000   0.1962
  -3.200  -0.2239   0.01117   0.00274  -0.0108  0.2459  0.0269  -1.6048   0.0000   0.1923
  -3.000  -0.2018   0.01113   0.00268  -0.0107  0.2395  0.0278  -1.5115   0.0000   0.1874
  -2.800  -0.1796   0.01108   0.00261  -0.0106  0.2354  0.0287  -1.4233   0.0000   0.1812
  -2.600  -0.1575   0.01104   0.00256  -0.0105  0.2302  0.0300  -1.3367   0.0000   0.1732
  -2.400  -0.1354   0.01100   0.00250  -0.0104  0.2249  0.0316  -1.2516   0.0000   0.1626
  -2.200  -0.1132   0.01096   0.00245  -0.0103  0.2203  0.0334  -1.1679   0.0000   0.1478
  -2.000  -0.0909   0.01093   0.00241  -0.0103  0.2171  0.0347  -1.0857   0.0000   0.1253
  -1.800  -0.0686   0.01090   0.00237  -0.0102  0.2140  0.0361  -1.0055   0.0000   0.0882
  -1.600  -0.0464   0.01086   0.00233  -0.0101  0.2100  0.0386  -0.9323   0.0000   0.0157
  -1.400  -0.0241   0.01084   0.00230  -0.0100  0.2060  0.0409  -0.8605   0.0000  -0.1909
  -1.200  -0.0018   0.01082   0.00227  -0.0100  0.2034  0.0428  -0.7899   0.0000  -5.5818
  -1.000   0.0206   0.01079   0.00224  -0.0099  0.2014  0.0459  -0.7205   0.0000   0.7452
  -0.800   0.0429   0.01076   0.00222  -0.0099  0.1984  0.0493  -0.7059   0.0000   0.4825
  -0.600   0.0652   0.01075   0.00221  -0.0098  0.1949  0.0523  -0.7338   0.0000   0.3996
  -0.400   0.0875   0.01073   0.00219  -0.0097  0.1922  0.0569  -0.7620   0.0000   0.3590
  -0.200   0.1099   0.01071   0.00218  -0.0097  0.1902  0.0617  -0.7903   0.0000   0.3349
   0.000   0.1323   0.01069   0.00217  -0.0096  0.1882  0.0676  -0.8189   0.0000   0.3189
   0.200   0.1545   0.01068   0.00217  -0.0096  0.1854  0.0754  -0.8486   0.0000   0.3075
   0.400   0.1767   0.01066   0.00217  -0.0095  0.1827  0.0860  -0.8786   0.0000   0.2989
   0.600   0.1982   0.01055   0.00215  -0.0094  0.1802  0.1239  -0.9083   0.0000   0.2920
   0.800   0.2139   0.00971   0.00200  -0.0085  0.1786  0.3436  -0.9334   0.0000   0.2840
   1.000   0.2348   0.00953   0.00199  -0.0082  0.1769  0.3981  -0.9629   0.0000   0.2792
   1.200   0.2566   0.00949   0.00201  -0.0081  0.1745  0.4238  -0.9942   0.0000   0.2756
   1.400   0.2791   0.00952   0.00204  -0.0081  0.1721  0.4309  -1.0269   0.0000   0.2728
   1.600   0.3016   0.00955   0.00207  -0.0081  0.1696  0.4390  -1.0597   0.0000   0.2704
   1.800   0.3241   0.00957   0.00211  -0.0081  0.1678  0.4466  -1.0928   0.0000   0.2684
   2.000   0.3466   0.00961   0.00214  -0.0081  0.1661  0.4551  -1.1262   0.0000   0.2666
   2.200   0.3689   0.00964   0.00219  -0.0081  0.1638  0.4635  -1.1603   0.0000   0.2649
   2.400   0.3913   0.00968   0.00224  -0.0080  0.1616  0.4722  -1.1954   0.0000   0.2635
   2.600   0.4136   0.00972   0.00229  -0.0080  0.1592  0.4814  -1.2308   0.0000   0.2622
   2.800   0.4360   0.00976   0.00234  -0.0080  0.1575  0.4906  -1.2664   0.0000   0.2610
   3.000   0.4583   0.00980   0.00240  -0.0080  0.1559  0.5001  -1.3022   0.0000   0.2599
   3.200   0.4804   0.00985   0.00246  -0.0080  0.1538  0.5100  -1.3389   0.0000   0.2589
   3.400   0.5027   0.00990   0.00252  -0.0079  0.1516  0.5198  -1.3767   0.0000   0.2579
   3.600   0.5248   0.00995   0.00259  -0.0079  0.1493  0.5301  -1.4147   0.0000   0.2570
   3.800   0.5470   0.01000   0.00266  -0.0079  0.1478  0.5406  -1.4530   0.0000   0.2562
   4.000   0.5691   0.01005   0.00274  -0.0078  0.1460  0.5513  -1.4914   0.0000   0.2554
   4.200   0.5910   0.01011   0.00282  -0.0078  0.1440  0.5622  -1.5310   0.0000   0.2546
   4.400   0.6131   0.01017   0.00290  -0.0077  0.1418  0.5732  -1.5716   0.0000   0.2539
   4.600   0.6350   0.01024   0.00299  -0.0077  0.1397  0.5849  -1.6124   0.0000   0.2532
   4.800   0.6569   0.01029   0.00308  -0.0076  0.1383  0.5966  -1.6534   0.0000   0.2526
   5.000   0.6787   0.01036   0.00317  -0.0075  0.1364  0.6084  -1.6947   0.0000   0.2519
   5.200   0.7004   0.01044   0.00328  -0.0075  0.1343  0.6206  -1.7378   0.0000   0.2513
   5.400   0.7221   0.01051   0.00338  -0.0074  0.1322  0.6330  -1.7813   0.0000   0.2506
   5.600   0.7438   0.01059   0.00348  -0.0073  0.1304  0.6457  -1.8250   0.0000   0.2500
   6.000   0.7868   0.01075   0.00372  -0.0071  0.1266  0.6720  -1.9143   0.0000   0.2488
   6.200   0.8082   0.01084   0.00384  -0.0070  0.1246  0.6856  -1.9606   0.0000   0.2482
   6.400   0.8295   0.01093   0.00396  -0.0068  0.1226  0.6995  -2.0071   0.0000   0.2476
   6.600   0.8508   0.01101   0.00409  -0.0067  0.1211  0.7136  -2.0538   0.0000   0.2471
   6.800   0.8719   0.01112   0.00423  -0.0065  0.1189  0.7279  -2.1021   0.0000   0.2465
   7.000   0.8928   0.01123   0.00438  -0.0064  0.1167  0.7425  -2.1511   0.0000   0.2458
   7.200   0.9137   0.01133   0.00452  -0.0062  0.1148  0.7573  -2.2005   0.0000   0.2453
   7.400   0.9346   0.01143   0.00467  -0.0060  0.1131  0.7723  -2.2504   0.0000   0.2447
   7.600   0.9552   0.01155   0.00483  -0.0057  0.1108  0.7874  -2.3022   0.0000   0.2440
   7.800   0.9755   0.01168   0.00500  -0.0055  0.1086  0.8026  -2.3541   0.0000   0.2434
   8.000   0.9959   0.01179   0.00517  -0.0052  0.1067  0.8179  -2.4065   0.0000   0.2427
   8.200   1.0161   0.01192   0.00534  -0.0049  0.1047  0.8331  -2.4610   0.0000   0.2421
   8.400   1.0359   0.01207   0.00554  -0.0045  0.1021  0.8482  -2.5157   0.0000   0.2414
   8.600   1.0556   0.01222   0.00573  -0.0041  0.1000  0.8631  -2.5706   0.0000   0.2407
   8.800   1.0753   0.01237   0.00592  -0.0037  0.0980  0.8775  -2.6285   0.0000   0.2400
   9.000   1.0945   0.01254   0.00613  -0.0033  0.0954  0.8914  -2.6860   0.0000   0.2392
   9.200   1.1132   0.01273   0.00636  -0.0027  0.0929  0.9049  -2.7450   0.0000   0.2384
   9.400   1.1321   0.01291   0.00658  -0.0022  0.0907  0.9176  -2.8057   0.0000   0.2376
   9.600   1.1507   0.01312   0.00681  -0.0016  0.0880  0.9296  -2.8682   0.0000   0.2368
   9.800   1.1690   0.01336   0.00707  -0.0010  0.0851  0.9407  -2.9318   0.0000   0.2360
  10.000   1.1881   0.01359   0.00732  -0.0006  0.0825  0.9507  -3.0002   0.0000   0.2353
  10.200   1.2072   0.01387   0.00760  -0.0003  0.0791  0.9595  -3.0714   0.0000   0.2347
  10.400   1.2269   0.01416   0.00789  -0.0001  0.0761  0.9670  -3.1473   0.0000   0.2343
  10.600   1.2464   0.01448   0.00820   0.0001  0.0723  0.9737  -3.2270   0.0000   0.2338
  10.800   1.2659   0.01482   0.00853   0.0002  0.0688  0.9797  -3.3105   0.0000   0.2334
  11.000   1.2849   0.01520   0.00890   0.0004  0.0646  0.9851  -3.3981   0.0000   0.2330
  11.200   1.3034   0.01557   0.00926   0.0006  0.0606  0.9903  -3.4885   0.0000   0.2325
  11.400   1.3210   0.01599   0.00966   0.0010  0.0566  0.9956  -3.5795   0.0000   0.2319
  11.600   1.3369   0.01642   0.01008   0.0017  0.0526  1.0000  -3.6703   0.0000   0.2311
  11.800   1.3488   0.01681   0.01047   0.0032  0.0493  1.0000  -3.7548   0.0000   0.2296
  12.000   1.3595   0.01726   0.01091   0.0048  0.0460  1.0000  -3.8364   0.0000   0.2281
  12.200   1.3710   0.01769   0.01134   0.0063  0.0431  1.0000  -3.9233   0.0000   0.2267
  12.400   1.3817   0.01819   0.01185   0.0078  0.0402  1.0000  -4.0112   0.0000   0.2253
  12.600   1.3931   0.01869   0.01235   0.0091  0.0376  1.0000  -4.1019   0.0000   0.2240
  12.800   1.4036   0.01924   0.01291   0.0105  0.0353  1.0000  -4.1906   0.0000   0.2227
  13.000   1.4145   0.01980   0.01348   0.0117  0.0331  1.0000  -4.2811   0.0000   0.2216
  13.200   1.4246   0.02042   0.01412   0.0130  0.0311  1.0000  -4.3748   0.0000   0.2204
  13.400   1.4348   0.02106   0.01477   0.0141  0.0293  1.0000  -4.4701   0.0000   0.2193
  13.600   1.4446   0.02174   0.01547   0.0152  0.0277  1.0000  -4.5648   0.0000   0.2182
  13.800   1.4537   0.02249   0.01625   0.0163  0.0264  1.0000  -4.6575   0.0000   0.2171
  14.000   1.4629   0.02326   0.01705   0.0173  0.0250  1.0000  -4.7509   0.0000   0.2161
  14.200   1.4711   0.02413   0.01794   0.0182  0.0236  1.0000  -4.8417   0.0000   0.2151
  14.400   1.4784   0.02510   0.01894   0.0191  0.0223  1.0000  -4.9310   0.0000   0.2142
  14.600   1.4864   0.02606   0.01993   0.0199  0.0216  1.0000  -5.0277   0.0000   0.2133
  14.800   1.4941   0.02708   0.02099   0.0205  0.0209  1.0000  -5.1236   0.0000   0.2125
  15.000   1.5007   0.02823   0.02219   0.0211  0.0200  1.0000  -5.2155   0.0000   0.2117
  15.200   1.5057   0.02956   0.02356   0.0216  0.0190  1.0000  -5.3018   0.0000   0.2110
  15.400   1.5100   0.03101   0.02506   0.0220  0.0182  1.0000  -5.3853   0.0000   0.2103
  15.600   1.5142   0.03254   0.02663   0.0223  0.0174  1.0000  -5.4687   0.0000   0.2097
  15.800   1.5176   0.03420   0.02834   0.0224  0.0167  1.0000  -5.5483   0.0000   0.2092
  16.000   1.5204   0.03597   0.03016   0.0225  0.0163  1.0000  -5.6256   0.0000   0.2087
  16.200   1.5223   0.03790   0.03216   0.0224  0.0159  1.0000  -5.6990   0.0000   0.2083
  16.400   1.5230   0.04003   0.03435   0.0221  0.0156  1.0000  -5.7670   0.0000   0.2080
  16.600   1.5220   0.04240   0.03678   0.0217  0.0152  1.0000  -5.8273   0.0000   0.2077
  16.800   1.5196   0.04499   0.03945   0.0212  0.0149  1.0000  -5.8841   0.0000   0.2075
  17.000   1.5162   0.04780   0.04232   0.0205  0.0145  1.0000  -5.9366   0.0000   0.2074
  17.200   1.5109   0.05089   0.04550   0.0196  0.0142  1.0000  -5.9796   0.0000   0.2074
  17.400   1.5036   0.05432   0.04900   0.0186  0.0138  1.0000  -6.0117   0.0000   0.2075
  17.600   1.4942   0.05810   0.05288   0.0173  0.0135  1.0000  -6.0325   0.0000   0.2077
  17.800   1.4826   0.06226   0.05713   0.0158  0.0132  1.0000  -6.0411   0.0000   0.2080
  18.000   1.4686   0.06679   0.06176   0.0142  0.0129  1.0000  -6.0357   0.0000   0.2085
  18.200   1.4524   0.07172   0.06680   0.0124  0.0128  1.0000  -6.0175   0.0000   0.2091
  18.400   1.4343   0.07703   0.07221   0.0104  0.0126  1.0000  -5.9864   0.0000   0.2099
  18.600   1.4140   0.08267   0.07797   0.0082  0.0125  1.0000  -5.9420   0.0000   0.2107
  18.800   1.3925   0.08860   0.08401   0.0058  0.0125  1.0000  -5.8879   0.0000   0.2118
  19.000   1.3704   0.09473   0.09025   0.0033  0.0124  1.0000  -5.8271   0.0000   0.2130
  19.200   1.3483   0.10087   0.09650   0.0008  0.0123  1.0000  -5.7632   0.0000   0.2143
  19.400   1.3265   0.10709   0.10283  -0.0018  0.0123  1.0000  -5.6968   0.0000   0.2158
  19.600   1.3066   0.11308   0.10892  -0.0045  0.0122  1.0000  -5.6382   0.0000   0.2173
  19.800   1.2875   0.11901   0.11494  -0.0071  0.0121  1.0000  -5.5801   0.0000   0.2190
  20.000   1.2705   0.12466   0.12067  -0.0097  0.0120  1.0000  -5.5309   0.0000   0.2206
  20.200   1.2558   0.13002   0.12611  -0.0123  0.0119  1.0000  -5.4918   0.0000   0.2223
  20.400   1.2439   0.13498   0.13114  -0.0148  0.0118  1.0000  -5.4665   0.0000   0.2239
  20.600   1.2339   0.13966   0.13589  -0.0172  0.0117  1.0000  -5.4499   0.0000   0.2254
  20.800   1.2240   0.14434   0.14063  -0.0196  0.0115  1.0000  -5.4317   0.0000   0.2270
  21.000   1.2160   0.14872   0.14506  -0.0220  0.0114  1.0000  -5.4238   0.0000   0.2286
  21.200   1.2096   0.15287   0.14927  -0.0243  0.0113  1.0000  -5.4234   0.0000   0.2301
  21.400   1.2032   0.15709   0.15355  -0.0267  0.0111  1.0000  -5.4202   0.0000   0.2317
  21.600   1.1989   0.16094   0.15744  -0.0289  0.0110  1.0000  -5.4300   0.0000   0.2332
  21.800   1.1938   0.16499   0.16154  -0.0314  0.0108  1.0000  -5.4315   0.0000   0.2348
  22.000   1.1908   0.16866   0.16525  -0.0336  0.0106  1.0000  -5.4468   0.0000   0.2363
  22.200   1.1870   0.17250   0.16914  -0.0360  0.0105  1.0000  -5.4538   0.0000   0.2379
  22.400   1.1844   0.17612   0.17280  -0.0383  0.0103  1.0000  -5.4678   0.0000   0.2394
  22.600   1.1816   0.17978   0.17650  -0.0407  0.0100  1.0000  -5.4794   0.0000   0.2409
  22.800   1.1787   0.18351   0.18027  -0.0431  0.0097  1.0000  -5.4879   0.0000   0.2426
  23.000   1.1772   0.18699   0.18378  -0.0455  0.0094  1.0000  -5.5058   0.0000   0.2441
  23.200   1.1742   0.19083   0.18765  -0.0481  0.0092  1.0000  -5.5093   0.0000   0.2459
  23.400   1.1740   0.19407   0.19092  -0.0503  0.0089  1.0000  -5.5366   0.0000   0.2473
  23.600   1.1730   0.19751   0.19441  -0.0528  0.0087  1.0000  -5.5577   0.0000   0.2489
  23.800   1.1726   0.20086   0.19779  -0.0552  0.0084  1.0000  -5.5819   0.0000   0.2505
  24.000   1.1730   0.20402   0.20098  -0.0575  0.0082  1.0000  -5.6134   0.0000   0.2519
  24.200   1.1725   0.20742   0.20442  -0.0600  0.0080  1.0000  -5.6339   0.0000   0.2535
  24.400   1.1730   0.21059   0.20762  -0.0623  0.0079  1.0000  -5.6630   0.0000   0.2549
  24.600   1.1740   0.21366   0.21072  -0.0647  0.0077  1.0000  -5.6957   0.0000   0.2563
  24.800   1.1740   0.21700   0.21409  -0.0672  0.0076  1.0000  -5.7161   0.0000   0.2579
  25.000   1.1747   0.22014   0.21726  -0.0696  0.0074  1.0000  -5.7440   0.0000   0.2594


