xflr5 v6.47

 Calculated polar for: NACA 23015

 1 1 Reynolds number fixed          Mach number fixed         

 xtrf =   1.000 (top)        1.000 (bottom)
 Mach =   0.000     Re =     2.000 e 6     Ncrit =   1.000

  alpha     CL        CD       CDp       Cm    Top Xtr Bot Xtr   Cpmin    Chinge    XCp    
 ------- -------- --------- --------- -------- ------- ------- -------- --------- ---------
 -10.000  -0.9537   0.01327   0.00696  -0.0178  0.6687  0.0107  -6.2895   0.0000   0.2191
  -9.800  -0.9337   0.01309   0.00673  -0.0174  0.6538  0.0109  -6.1160   0.0000   0.2194
  -9.600  -0.9136   0.01292   0.00651  -0.0170  0.6392  0.0110  -5.9438   0.0000   0.2196
  -9.400  -0.8933   0.01275   0.00629  -0.0166  0.6248  0.0113  -5.7731   0.0000   0.2198
  -9.200  -0.8730   0.01258   0.00608  -0.0162  0.6107  0.0115  -5.6038   0.0000   0.2200
  -9.000  -0.8525   0.01242   0.00588  -0.0159  0.5968  0.0117  -5.4361   0.0000   0.2201
  -8.800  -0.8319   0.01227   0.00568  -0.0155  0.5830  0.0119  -5.2700   0.0000   0.2202
  -8.600  -0.8112   0.01213   0.00549  -0.0152  0.5693  0.0120  -5.1058   0.0000   0.2203
  -8.400  -0.7904   0.01198   0.00531  -0.0149  0.5560  0.0122  -4.9432   0.0000   0.2204
  -8.200  -0.7695   0.01184   0.00513  -0.0146  0.5429  0.0124  -4.7823   0.0000   0.2204
  -8.000  -0.7485   0.01170   0.00495  -0.0143  0.5304  0.0127  -4.6231   0.0000   0.2204
  -7.800  -0.7275   0.01157   0.00479  -0.0141  0.5181  0.0129  -4.4657   0.0000   0.2204
  -7.600  -0.7063   0.01144   0.00462  -0.0138  0.5058  0.0132  -4.3192   0.0000   0.2203
  -7.400  -0.6851   0.01132   0.00447  -0.0136  0.4935  0.0134  -4.1746   0.0000   0.2202
  -7.200  -0.6638   0.01121   0.00431  -0.0133  0.4809  0.0137  -4.0316   0.0000   0.2200
  -7.000  -0.6424   0.01111   0.00417  -0.0131  0.4680  0.0139  -3.8905   0.0000   0.2198
  -6.800  -0.6209   0.01101   0.00403  -0.0129  0.4551  0.0141  -3.7510   0.0000   0.2196
  -6.600  -0.5994   0.01091   0.00390  -0.0127  0.4424  0.0143  -3.6132   0.0000   0.2193
  -6.400  -0.5778   0.01082   0.00377  -0.0125  0.4293  0.0147  -3.4771   0.0000   0.2189
  -6.200  -0.5562   0.01074   0.00364  -0.0123  0.4160  0.0151  -3.3428   0.0000   0.2185
  -6.000  -0.5347   0.01065   0.00352  -0.0121  0.4020  0.0157  -3.2106   0.0000   0.2181
  -5.800  -0.5132   0.01058   0.00340  -0.0119  0.3839  0.0162  -3.0805   0.0000   0.2176
  -5.600  -0.4919   0.01058   0.00330  -0.0117  0.3513  0.0166  -2.9534   0.0000   0.2171
  -5.400  -0.4707   0.01059   0.00321  -0.0115  0.3165  0.0170  -2.8283   0.0000   0.2166
  -5.200  -0.4492   0.01058   0.00312  -0.0113  0.2909  0.0173  -2.7044   0.0000   0.2159
  -5.000  -0.4273   0.01054   0.00303  -0.0111  0.2752  0.0176  -2.5815   0.0000   0.2151
  -4.800  -0.4053   0.01049   0.00294  -0.0110  0.2655  0.0180  -2.4639   0.0000   0.2140
  -4.600  -0.3833   0.01043   0.00286  -0.0109  0.2562  0.0183  -2.3526   0.0000   0.2128
  -4.400  -0.3612   0.01037   0.00277  -0.0108  0.2498  0.0188  -2.2427   0.0000   0.2113
  -4.200  -0.3390   0.01030   0.00269  -0.0107  0.2443  0.0200  -2.1343   0.0000   0.2097
  -4.000  -0.3169   0.01024   0.00262  -0.0106  0.2372  0.0209  -2.0278   0.0000   0.2078
  -3.800  -0.2946   0.01019   0.00255  -0.0105  0.2316  0.0214  -1.9229   0.0000   0.2055
  -3.600  -0.2723   0.01014   0.00248  -0.0104  0.2270  0.0219  -1.8198   0.0000   0.2028
  -3.400  -0.2498   0.01009   0.00242  -0.0104  0.2234  0.0223  -1.7182   0.0000   0.1996
  -3.200  -0.2275   0.01005   0.00236  -0.0103  0.2187  0.0229  -1.6185   0.0000   0.1957
  -3.000  -0.2051   0.01000   0.00231  -0.0102  0.2139  0.0242  -1.5228   0.0000   0.1909
  -2.800  -0.1827   0.00995   0.00225  -0.0102  0.2109  0.0256  -1.4334   0.0000   0.1849
  -2.600  -0.1601   0.00991   0.00220  -0.0101  0.2083  0.0265  -1.3457   0.0000   0.1770
  -2.400  -0.1377   0.00988   0.00216  -0.0101  0.2048  0.0274  -1.2596   0.0000   0.1666
  -2.200  -0.1151   0.00984   0.00212  -0.0100  0.2013  0.0283  -1.1750   0.0000   0.1520
  -2.000  -0.0926   0.00981   0.00208  -0.0100  0.1980  0.0298  -1.0919   0.0000   0.1302
  -1.800  -0.0700   0.00977   0.00205  -0.0100  0.1961  0.0317  -1.0103   0.0000   0.0943
  -1.600  -0.0475   0.00974   0.00201  -0.0100  0.1938  0.0333  -0.9361   0.0000   0.0241
  -1.400  -0.0248   0.00972   0.00199  -0.0099  0.1911  0.0344  -0.8635   0.0000  -0.1752
  -1.200  -0.0022   0.00970   0.00196  -0.0099  0.1877  0.0364  -0.7923   0.0000  -4.4025
  -1.000   0.0203   0.00968   0.00194  -0.0099  0.1851  0.0393  -0.7225   0.0000   0.7513
  -0.800   0.0430   0.00966   0.00193  -0.0099  0.1836  0.0408  -0.7060   0.0000   0.4832
  -0.600   0.0657   0.00964   0.00191  -0.0099  0.1818  0.0435  -0.7343   0.0000   0.4002
  -0.400   0.0883   0.00963   0.00190  -0.0099  0.1789  0.0470  -0.7627   0.0000   0.3598
  -0.200   0.1109   0.00962   0.00189  -0.0099  0.1757  0.0497  -0.7913   0.0000   0.3359
   0.000   0.1335   0.00961   0.00189  -0.0099  0.1737  0.0541  -0.8200   0.0000   0.3200
   0.200   0.1562   0.00960   0.00189  -0.0099  0.1725  0.0582  -0.8502   0.0000   0.3088
   0.400   0.1788   0.00959   0.00189  -0.0099  0.1707  0.0640  -0.8806   0.0000   0.3005
   0.600   0.2014   0.00958   0.00189  -0.0099  0.1679  0.0706  -0.9112   0.0000   0.2939
   0.800   0.2238   0.00958   0.00190  -0.0099  0.1649  0.0798  -0.9420   0.0000   0.2886
   1.000   0.2461   0.00954   0.00191  -0.0098  0.1632  0.0990  -0.9728   0.0000   0.2842
   1.200   0.2628   0.00878   0.00178  -0.0090  0.1623  0.3230  -0.9997   0.0000   0.2784
   1.400   0.2841   0.00862   0.00178  -0.0089  0.1607  0.3755  -1.0314   0.0000   0.2750
   1.600   0.3064   0.00860   0.00180  -0.0088  0.1581  0.3940  -1.0642   0.0000   0.2725
   1.800   0.3290   0.00864   0.00184  -0.0089  0.1552  0.4007  -1.0976   0.0000   0.2704
   2.000   0.3517   0.00867   0.00187  -0.0089  0.1534  0.4076  -1.1311   0.0000   0.2686
   2.200   0.3745   0.00870   0.00191  -0.0089  0.1524  0.4145  -1.1658   0.0000   0.2670
   2.400   0.3972   0.00873   0.00195  -0.0090  0.1507  0.4222  -1.2013   0.0000   0.2656
   2.600   0.4198   0.00877   0.00199  -0.0090  0.1481  0.4294  -1.2370   0.0000   0.2643
   2.800   0.4423   0.00882   0.00204  -0.0090  0.1454  0.4374  -1.2728   0.0000   0.2631
   3.000   0.4649   0.00886   0.00209  -0.0090  0.1438  0.4453  -1.3090   0.0000   0.2620
   3.200   0.4875   0.00889   0.00214  -0.0091  0.1428  0.4538  -1.3464   0.0000   0.2610
   3.400   0.5100   0.00893   0.00219  -0.0091  0.1410  0.4628  -1.3845   0.0000   0.2601
   3.800   0.5548   0.00904   0.00232  -0.0091  0.1358  0.4802  -1.4614   0.0000   0.2583
   4.000   0.5772   0.00909   0.00238  -0.0091  0.1345  0.4897  -1.5002   0.0000   0.2576
   4.200   0.5997   0.00913   0.00245  -0.0092  0.1334  0.4986  -1.5407   0.0000   0.2569
   4.400   0.6220   0.00918   0.00252  -0.0092  0.1314  0.5089  -1.5817   0.0000   0.2561
   4.600   0.6441   0.00925   0.00259  -0.0092  0.1287  0.5186  -1.6229   0.0000   0.2554
   4.800   0.6662   0.00933   0.00268  -0.0091  0.1265  0.5282  -1.6642   0.0000   0.2548
   5.000   0.6885   0.00938   0.00276  -0.0091  0.1254  0.5389  -1.7064   0.0000   0.2541
   5.200   0.7107   0.00943   0.00284  -0.0091  0.1239  0.5500  -1.7501   0.0000   0.2535
   5.400   0.7327   0.00950   0.00293  -0.0091  0.1215  0.5602  -1.7941   0.0000   0.2529
   5.600   0.7546   0.00959   0.00303  -0.0091  0.1189  0.5710  -1.8382   0.0000   0.2523
   5.800   0.7765   0.00966   0.00312  -0.0090  0.1174  0.5825  -1.8826   0.0000   0.2517
   6.000   0.7985   0.00973   0.00322  -0.0090  0.1161  0.5947  -1.9292   0.0000   0.2512
   6.200   0.8203   0.00981   0.00332  -0.0090  0.1139  0.6063  -1.9761   0.0000   0.2506
   6.400   0.8419   0.00990   0.00343  -0.0089  0.1113  0.6179  -2.0231   0.0000   0.2500
   6.600   0.8635   0.00999   0.00355  -0.0088  0.1095  0.6300  -2.0704   0.0000   0.2495
   6.800   0.8852   0.01008   0.00366  -0.0088  0.1080  0.6427  -2.1200   0.0000   0.2489
   7.000   0.9067   0.01017   0.00378  -0.0087  0.1057  0.6559  -2.1699   0.0000   0.2484
   7.200   0.9280   0.01027   0.00391  -0.0086  0.1032  0.6695  -2.2200   0.0000   0.2478
   7.400   0.9492   0.01038   0.00405  -0.0085  0.1014  0.6832  -2.2710   0.0000   0.2473
   7.600   0.9705   0.01048   0.00419  -0.0084  0.0995  0.6971  -2.3239   0.0000   0.2467
   7.800   0.9916   0.01059   0.00433  -0.0082  0.0970  0.7113  -2.3770   0.0000   0.2461
   8.000   1.0125   0.01071   0.00448  -0.0081  0.0947  0.7257  -2.4306   0.0000   0.2456
   8.200   1.0332   0.01084   0.00464  -0.0079  0.0925  0.7403  -2.4864   0.0000   0.2450
   8.400   1.0540   0.01097   0.00480  -0.0077  0.0901  0.7551  -2.5426   0.0000   0.2444
   8.600   1.0745   0.01111   0.00497  -0.0075  0.0874  0.7702  -2.5998   0.0000   0.2438
   8.800   1.0947   0.01126   0.00515  -0.0073  0.0850  0.7857  -2.6587   0.0000   0.2432
   9.000   1.1149   0.01140   0.00534  -0.0070  0.0823  0.8013  -2.7181   0.0000   0.2426
   9.200   1.1347   0.01157   0.00554  -0.0067  0.0793  0.8171  -2.7799   0.0000   0.2419
   9.400   1.1544   0.01174   0.00574  -0.0064  0.0765  0.8329  -2.8422   0.0000   0.2412
   9.600   1.1738   0.01193   0.00596  -0.0060  0.0732  0.8487  -2.9074   0.0000   0.2405
   9.800   1.1927   0.01214   0.00620  -0.0055  0.0700  0.8642  -2.9736   0.0000   0.2398
  10.000   1.2114   0.01235   0.00644  -0.0050  0.0665  0.8794  -3.0421   0.0000   0.2390
  10.200   1.2295   0.01259   0.00671  -0.0044  0.0628  0.8943  -3.1132   0.0000   0.2382
  10.400   1.2470   0.01286   0.00700  -0.0038  0.0588  0.9088  -3.1870   0.0000   0.2373
  10.600   1.2644   0.01312   0.00728  -0.0031  0.0552  0.9227  -3.2647   0.0000   0.2364
  10.800   1.2808   0.01343   0.00761  -0.0022  0.0510  0.9359  -3.3437   0.0000   0.2353
  11.000   1.2969   0.01374   0.00793  -0.0013  0.0472  0.9485  -3.4257   0.0000   0.2343
  11.200   1.3132   0.01405   0.00825  -0.0004  0.0438  0.9600  -3.5131   0.0000   0.2333
  11.400   1.3298   0.01443   0.00862   0.0003  0.0402  0.9700  -3.6022   0.0000   0.2324
  11.600   1.3475   0.01479   0.00898   0.0008  0.0369  0.9781  -3.6997   0.0000   0.2318
  12.000   1.3832   0.01558   0.00975   0.0014  0.0313  0.9910  -3.9005   0.0000   0.2306
  12.400   1.4130   0.01635   0.01052   0.0032  0.0272  1.0000  -4.1012   0.0000   0.2287
  12.600   1.4251   0.01674   0.01092   0.0047  0.0256  1.0000  -4.1950   0.0000   0.2274
  12.800   1.4378   0.01712   0.01131   0.0059  0.0245  1.0000  -4.2919   0.0000   0.2262
  13.000   1.4489   0.01761   0.01180   0.0073  0.0227  1.0000  -4.3901   0.0000   0.2248
  13.200   1.4608   0.01808   0.01227   0.0086  0.0213  1.0000  -4.4915   0.0000   0.2237
  13.400   1.4729   0.01854   0.01275   0.0097  0.0204  1.0000  -4.5947   0.0000   0.2226
  13.600   1.4847   0.01904   0.01327   0.0108  0.0196  1.0000  -4.6974   0.0000   0.2215
  13.800   1.4952   0.01963   0.01387   0.0120  0.0185  1.0000  -4.7966   0.0000   0.2204
  14.000   1.5061   0.02022   0.01447   0.0131  0.0176  1.0000  -4.8979   0.0000   0.2193
  14.200   1.5162   0.02086   0.01514   0.0142  0.0165  1.0000  -5.0018   0.0000   0.2183
  14.400   1.5252   0.02161   0.01590   0.0152  0.0155  1.0000  -5.1043   0.0000   0.2172
  14.600   1.5349   0.02233   0.01665   0.0162  0.0150  1.0000  -5.2095   0.0000   0.2163
  14.800   1.5447   0.02307   0.01742   0.0170  0.0147  1.0000  -5.3163   0.0000   0.2154
  15.000   1.5541   0.02388   0.01825   0.0178  0.0144  1.0000  -5.4219   0.0000   0.2145
  15.200   1.5625   0.02478   0.01918   0.0186  0.0139  1.0000  -5.5242   0.0000   0.2137
  15.400   1.5696   0.02581   0.02025   0.0193  0.0132  1.0000  -5.6221   0.0000   0.2128
  15.600   1.5752   0.02702   0.02149   0.0200  0.0124  1.0000  -5.7145   0.0000   0.2120
  15.800   1.5806   0.02828   0.02279   0.0206  0.0118  1.0000  -5.8061   0.0000   0.2112
  16.000   1.5864   0.02956   0.02411   0.0210  0.0114  1.0000  -5.8998   0.0000   0.2105
  16.200   1.5919   0.03093   0.02552   0.0213  0.0112  1.0000  -5.9959   0.0000   0.2099
  16.400   1.5966   0.03242   0.02705   0.0215  0.0110  1.0000  -6.0911   0.0000   0.2093
  16.600   1.6004   0.03403   0.02871   0.0216  0.0108  1.0000  -6.1825   0.0000   0.2088
  16.800   1.6030   0.03583   0.03055   0.0216  0.0105  1.0000  -6.2688   0.0000   0.2083
  17.000   1.6047   0.03779   0.03257   0.0215  0.0103  1.0000  -6.3503   0.0000   0.2079
  17.200   1.6048   0.03996   0.03480   0.0212  0.0101  1.0000  -6.4245   0.0000   0.2075
  17.400   1.6031   0.04238   0.03727   0.0208  0.0099  1.0000  -6.4903   0.0000   0.2072
  17.600   1.5996   0.04510   0.04006   0.0203  0.0096  1.0000  -6.5464   0.0000   0.2070
  17.800   1.5942   0.04813   0.04316   0.0195  0.0094  1.0000  -6.5929   0.0000   0.2069
  18.000   1.5874   0.05138   0.04649   0.0186  0.0091  1.0000  -6.6312   0.0000   0.2069
  18.200   1.5795   0.05485   0.05003   0.0176  0.0090  1.0000  -6.6632   0.0000   0.2069
  18.400   1.5696   0.05867   0.05393   0.0163  0.0088  1.0000  -6.6837   0.0000   0.2071
  18.600   1.5573   0.06288   0.05822   0.0149  0.0087  1.0000  -6.6902   0.0000   0.2073
  18.800   1.5423   0.06748   0.06292   0.0133  0.0086  1.0000  -6.6815   0.0000   0.2077
  19.000   1.5251   0.07250   0.06804   0.0114  0.0085  1.0000  -6.6588   0.0000   0.2083
  19.200   1.5055   0.07792   0.07356   0.0094  0.0084  1.0000  -6.6213   0.0000   0.2089
  19.400   1.4836   0.08371   0.07947   0.0072  0.0084  1.0000  -6.5683   0.0000   0.2098
  19.600   1.4602   0.08984   0.08570   0.0048  0.0083  1.0000  -6.5041   0.0000   0.2108
  19.800   1.4361   0.09615   0.09213   0.0022  0.0083  1.0000  -6.4324   0.0000   0.2119
  20.000   1.4120   0.10250   0.09858  -0.0004  0.0083  1.0000  -6.3573   0.0000   0.2132
  20.200   1.3877   0.10903   0.10522  -0.0032  0.0083  1.0000  -6.2764   0.0000   0.2147
  20.400   1.3664   0.11516   0.11144  -0.0059  0.0083  1.0000  -6.2096   0.0000   0.2162
  20.600   1.3451   0.12134   0.11771  -0.0087  0.0082  1.0000  -6.1384   0.0000   0.2178
  20.800   1.3265   0.12719   0.12365  -0.0115  0.0082  1.0000  -6.0794   0.0000   0.2195
  21.000   1.3104   0.13273   0.12926  -0.0142  0.0081  1.0000  -6.0318   0.0000   0.2212
  21.200   1.2967   0.13794   0.13455  -0.0169  0.0080  1.0000  -5.9956   0.0000   0.2228
  21.400   1.2854   0.14275   0.13942  -0.0194  0.0078  1.0000  -5.9720   0.0000   0.2244
  21.600   1.2738   0.14767   0.14440  -0.0221  0.0078  1.0000  -5.9433   0.0000   0.2261
  21.800   1.2641   0.15232   0.14911  -0.0247  0.0077  1.0000  -5.9244   0.0000   0.2278
  22.000   1.2575   0.15647   0.15330  -0.0271  0.0076  1.0000  -5.9239   0.0000   0.2293
  22.200   1.2493   0.16098   0.15787  -0.0297  0.0075  1.0000  -5.9092   0.0000   0.2310
  22.400   1.2448   0.16484   0.16176  -0.0321  0.0073  1.0000  -5.9182   0.0000   0.2325
  22.600   1.2381   0.16914   0.16612  -0.0347  0.0072  1.0000  -5.9096   0.0000   0.2342
  22.800   1.2349   0.17280   0.16981  -0.0370  0.0071  1.0000  -5.9264   0.0000   0.2357
  23.000   1.2293   0.17694   0.17400  -0.0397  0.0070  1.0000  -5.9245   0.0000   0.2375
  23.200   1.2271   0.18040   0.17749  -0.0420  0.0069  1.0000  -5.9488   0.0000   0.2388
  23.400   1.2227   0.18435   0.18150  -0.0446  0.0068  1.0000  -5.9523   0.0000   0.2406
  23.600   1.2216   0.18769   0.18486  -0.0469  0.0067  1.0000  -5.9810   0.0000   0.2420
  23.800   1.2197   0.19121   0.18843  -0.0494  0.0066  1.0000  -6.0011   0.0000   0.2435
  24.000   1.2179   0.19471   0.19196  -0.0519  0.0066  1.0000  -6.0213   0.0000   0.2450
  24.200   1.2179   0.19788   0.19516  -0.0541  0.0065  1.0000  -6.0551   0.0000   0.2463
  24.400   1.2158   0.20150   0.19882  -0.0568  0.0064  1.0000  -6.0686   0.0000   0.2480
  24.600   1.2156   0.20474   0.20209  -0.0592  0.0063  1.0000  -6.0977   0.0000   0.2495
  24.800   1.2159   0.20787   0.20525  -0.0615  0.0062  1.0000  -6.1306   0.0000   0.2508
  25.000   1.2138   0.21156   0.20898  -0.0643  0.0060  1.0000  -6.1386   0.0000   0.2526


