xflr5 v6.47

 Calculated polar for: NACA 23015

 1 1 Reynolds number fixed          Mach number fixed         

 xtrf =   1.000 (top)        1.000 (bottom)
 Mach =   0.000     Re =     0.450 e 6     Ncrit =   1.000

  alpha     CL        CD       CDp       Cm    Top Xtr Bot Xtr   Cpmin    Chinge    XCp    
 ------- -------- --------- --------- -------- ------- ------- -------- --------- ---------
 -10.000  -0.8815   0.01885   0.01177  -0.0292  0.9034  0.0141  -5.8693   0.0000   0.2043
  -9.800  -0.8643   0.01850   0.01135  -0.0284  0.8879  0.0143  -5.7160   0.0000   0.2048
  -9.600  -0.8472   0.01817   0.01095  -0.0275  0.8715  0.0145  -5.5645   0.0000   0.2054
  -9.400  -0.8300   0.01786   0.01055  -0.0266  0.8547  0.0147  -5.4140   0.0000   0.2060
  -9.200  -0.8125   0.01757   0.01017  -0.0257  0.8378  0.0149  -5.2641   0.0000   0.2066
  -9.000  -0.7948   0.01729   0.00981  -0.0249  0.8206  0.0152  -5.1142   0.0000   0.2071
  -8.800  -0.7770   0.01702   0.00946  -0.0241  0.8033  0.0156  -4.9647   0.0000   0.2076
  -8.600  -0.7588   0.01676   0.00912  -0.0234  0.7863  0.0160  -4.8161   0.0000   0.2080
  -8.400  -0.7404   0.01652   0.00879  -0.0227  0.7692  0.0164  -4.6685   0.0000   0.2083
  -8.200  -0.7218   0.01628   0.00848  -0.0220  0.7523  0.0167  -4.5221   0.0000   0.2086
  -8.000  -0.7029   0.01606   0.00817  -0.0214  0.7355  0.0171  -4.3769   0.0000   0.2088
  -7.800  -0.6839   0.01584   0.00787  -0.0208  0.7190  0.0174  -4.2404   0.0000   0.2090
  -7.600  -0.6646   0.01564   0.00759  -0.0202  0.7028  0.0176  -4.1067   0.0000   0.2091
  -7.400  -0.6452   0.01544   0.00730  -0.0197  0.6868  0.0179  -3.9740   0.0000   0.2092
  -7.200  -0.6257   0.01525   0.00704  -0.0192  0.6710  0.0182  -3.8423   0.0000   0.2092
  -7.000  -0.6060   0.01507   0.00678  -0.0187  0.6554  0.0184  -3.7118   0.0000   0.2091
  -6.800  -0.5862   0.01489   0.00654  -0.0182  0.6400  0.0188  -3.5820   0.0000   0.2090
  -6.600  -0.5663   0.01472   0.00630  -0.0178  0.6248  0.0194  -3.4533   0.0000   0.2088
  -6.400  -0.5463   0.01455   0.00607  -0.0173  0.6098  0.0201  -3.3260   0.0000   0.2085
  -6.200  -0.5261   0.01440   0.00585  -0.0169  0.5950  0.0207  -3.2003   0.0000   0.2082
  -6.000  -0.5058   0.01425   0.00564  -0.0165  0.5803  0.0214  -3.0761   0.0000   0.2078
  -5.800  -0.4854   0.01411   0.00544  -0.0161  0.5657  0.0219  -2.9535   0.0000   0.2073
  -5.600  -0.4649   0.01399   0.00525  -0.0158  0.5510  0.0223  -2.8324   0.0000   0.2067
  -5.400  -0.4444   0.01386   0.00505  -0.0154  0.5364  0.0227  -2.7127   0.0000   0.2060
  -5.200  -0.4238   0.01374   0.00488  -0.0151  0.5218  0.0233  -2.5945   0.0000   0.2051
  -5.000  -0.4031   0.01363   0.00471  -0.0148  0.5070  0.0241  -2.4793   0.0000   0.2042
  -4.800  -0.3823   0.01353   0.00455  -0.0144  0.4919  0.0251  -2.3722   0.0000   0.2031
  -4.600  -0.3615   0.01344   0.00440  -0.0141  0.4761  0.0260  -2.2668   0.0000   0.2018
  -4.400  -0.3407   0.01336   0.00425  -0.0138  0.4591  0.0269  -2.1628   0.0000   0.2003
  -4.200  -0.3200   0.01331   0.00411  -0.0135  0.4369  0.0277  -2.0608   0.0000   0.1987
  -4.000  -0.2996   0.01332   0.00399  -0.0131  0.4054  0.0285  -1.9612   0.0000   0.1970
  -3.800  -0.2792   0.01334   0.00388  -0.0128  0.3727  0.0296  -1.8631   0.0000   0.1951
  -3.600  -0.2586   0.01334   0.00377  -0.0125  0.3447  0.0308  -1.7660   0.0000   0.1926
  -3.400  -0.2376   0.01330   0.00366  -0.0122  0.3271  0.0322  -1.6695   0.0000   0.1894
  -3.200  -0.2163   0.01325   0.00356  -0.0119  0.3156  0.0337  -1.5741   0.0000   0.1853
  -3.000  -0.1950   0.01320   0.00347  -0.0117  0.3045  0.0349  -1.4859   0.0000   0.1802
  -2.800  -0.1736   0.01315   0.00338  -0.0115  0.2948  0.0364  -1.4003   0.0000   0.1738
  -2.600  -0.1521   0.01311   0.00330  -0.0113  0.2855  0.0385  -1.3161   0.0000   0.1655
  -2.400  -0.1306   0.01307   0.00322  -0.0111  0.2769  0.0405  -1.2331   0.0000   0.1543
  -2.200  -0.1091   0.01302   0.00316  -0.0109  0.2691  0.0425  -1.1516   0.0000   0.1386
  -1.800  -0.0659   0.01296   0.00304  -0.0106  0.2544  0.0478  -0.9947   0.0000   0.0760
  -1.600  -0.0442   0.01292   0.00298  -0.0104  0.2485  0.0509  -0.9231   0.0000  -0.0017
  -1.400  -0.0226   0.01289   0.00294  -0.0102  0.2427  0.0545  -0.8528   0.0000  -0.2291
  -1.200  -0.0009   0.01287   0.00290  -0.0101  0.2369  0.0585  -0.7838   0.0000  -11.3022
  -1.000   0.0208   0.01284   0.00286  -0.0099  0.2318  0.0636  -0.7160   0.0000   0.7393
  -0.800   0.0425   0.01281   0.00283  -0.0097  0.2277  0.0694  -0.7048   0.0000   0.4819
  -0.600   0.0642   0.01278   0.00280  -0.0096  0.2238  0.0772  -0.7323   0.0000   0.3987
  -0.400   0.0858   0.01275   0.00277  -0.0094  0.2195  0.0872  -0.7598   0.0000   0.3574
   0.000   0.1208   0.01167   0.00253  -0.0081  0.2128  0.3404  -0.8092   0.0000   0.3130
   0.200   0.1407   0.01145   0.00250  -0.0077  0.2101  0.3994  -0.8365   0.0000   0.3002
   0.400   0.1610   0.01129   0.00250  -0.0074  0.2070  0.4476  -0.8650   0.0000   0.2906
   0.600   0.1823   0.01125   0.00252  -0.0071  0.2039  0.4708  -0.8945   0.0000   0.2838
   0.800   0.2043   0.01127   0.00254  -0.0070  0.2007  0.4799  -0.9246   0.0000   0.2787
   1.000   0.2263   0.01130   0.00257  -0.0069  0.1980  0.4889  -0.9550   0.0000   0.2747
   1.200   0.2483   0.01133   0.00260  -0.0068  0.1957  0.4984  -0.9860   0.0000   0.2714
   1.400   0.2702   0.01137   0.00264  -0.0067  0.1932  0.5081  -1.0180   0.0000   0.2685
   1.600   0.2922   0.01140   0.00268  -0.0066  0.1905  0.5180  -1.0503   0.0000   0.2661
   1.800   0.3141   0.01144   0.00273  -0.0065  0.1876  0.5284  -1.0827   0.0000   0.2640
   2.000   0.3359   0.01148   0.00278  -0.0064  0.1854  0.5389  -1.1154   0.0000   0.2621
   2.200   0.3577   0.01152   0.00284  -0.0062  0.1835  0.5497  -1.1485   0.0000   0.2605
   2.400   0.3795   0.01156   0.00290  -0.0061  0.1812  0.5607  -1.1829   0.0000   0.2590
   2.600   0.4013   0.01161   0.00296  -0.0060  0.1786  0.5719  -1.2176   0.0000   0.2576
   2.800   0.4229   0.01166   0.00303  -0.0059  0.1760  0.5837  -1.2524   0.0000   0.2564
   3.000   0.4445   0.01172   0.00311  -0.0057  0.1741  0.5954  -1.2874   0.0000   0.2552
   3.200   0.4661   0.01177   0.00319  -0.0056  0.1724  0.6074  -1.3229   0.0000   0.2542
   3.400   0.4877   0.01182   0.00328  -0.0054  0.1702  0.6198  -1.3599   0.0000   0.2532
   3.600   0.5092   0.01188   0.00337  -0.0053  0.1677  0.6322  -1.3970   0.0000   0.2522
   3.800   0.5306   0.01195   0.00346  -0.0051  0.1653  0.6451  -1.4343   0.0000   0.2513
   4.000   0.5519   0.01202   0.00357  -0.0049  0.1636  0.6581  -1.4718   0.0000   0.2504
   4.200   0.5733   0.01209   0.00367  -0.0047  0.1619  0.6714  -1.5100   0.0000   0.2496
   4.400   0.5945   0.01216   0.00378  -0.0045  0.1598  0.6850  -1.5496   0.0000   0.2488
   4.600   0.6156   0.01223   0.00390  -0.0043  0.1574  0.6987  -1.5893   0.0000   0.2480
   4.800   0.6366   0.01232   0.00402  -0.0041  0.1552  0.7125  -1.6291   0.0000   0.2473
   5.000   0.6576   0.01240   0.00415  -0.0038  0.1536  0.7267  -1.6691   0.0000   0.2465
   5.200   0.6785   0.01248   0.00429  -0.0036  0.1519  0.7411  -1.7106   0.0000   0.2458
   5.400   0.6993   0.01257   0.00442  -0.0033  0.1498  0.7555  -1.7528   0.0000   0.2450
   5.600   0.7200   0.01267   0.00457  -0.0030  0.1474  0.7701  -1.7951   0.0000   0.2443
   5.800   0.7405   0.01278   0.00473  -0.0027  0.1454  0.7848  -1.8375   0.0000   0.2436
   6.000   0.7610   0.01289   0.00488  -0.0024  0.1439  0.7994  -1.8807   0.0000   0.2428
   6.200   0.7814   0.01300   0.00505  -0.0021  0.1422  0.8141  -1.9254   0.0000   0.2421
   6.400   0.8016   0.01311   0.00522  -0.0017  0.1400  0.8286  -1.9703   0.0000   0.2413
   6.600   0.8217   0.01325   0.00539  -0.0013  0.1377  0.8429  -2.0153   0.0000   0.2406
   6.800   0.8417   0.01338   0.00558  -0.0009  0.1359  0.8569  -2.0609   0.0000   0.2398
   7.000   0.8616   0.01353   0.00577  -0.0005  0.1343  0.8706  -2.1083   0.0000   0.2391
   7.200   0.8817   0.01368   0.00597  -0.0001  0.1324  0.8837  -2.1561   0.0000   0.2384
   7.400   0.9018   0.01385   0.00617   0.0003  0.1301  0.8962  -2.2044   0.0000   0.2378
   7.600   0.9220   0.01403   0.00639   0.0006  0.1280  0.9079  -2.2543   0.0000   0.2372
   7.800   0.9426   0.01423   0.00661   0.0008  0.1263  0.9187  -2.3061   0.0000   0.2368
   8.000   0.9638   0.01442   0.00683   0.0009  0.1244  0.9286  -2.3588   0.0000   0.2365
   8.200   0.9852   0.01464   0.00706   0.0009  0.1221  0.9375  -2.4131   0.0000   0.2363
   8.400   1.0066   0.01486   0.00731   0.0008  0.1199  0.9457  -2.4695   0.0000   0.2361
   8.600   1.0283   0.01510   0.00756   0.0007  0.1179  0.9530  -2.5264   0.0000   0.2360
   8.800   1.0499   0.01534   0.00781   0.0006  0.1158  0.9596  -2.5855   0.0000   0.2358
   9.000   1.0712   0.01558   0.00808   0.0005  0.1135  0.9659  -2.6455   0.0000   0.2357
   9.200   1.0922   0.01584   0.00835   0.0004  0.1112  0.9718  -2.7064   0.0000   0.2355
   9.400   1.1129   0.01612   0.00864   0.0004  0.1090  0.9772  -2.7693   0.0000   0.2352
   9.600   1.1334   0.01639   0.00893   0.0004  0.1068  0.9825  -2.8333   0.0000   0.2349
   9.800   1.1533   0.01668   0.00923   0.0005  0.1043  0.9876  -2.8990   0.0000   0.2346
  10.000   1.1729   0.01698   0.00955   0.0006  0.1019  0.9926  -2.9669   0.0000   0.2342
  10.200   1.1922   0.01730   0.00988   0.0008  0.0996  0.9975  -3.0368   0.0000   0.2338
  10.400   1.2089   0.01760   0.01020   0.0014  0.0971  1.0000  -3.1053   0.0000   0.2329
  10.600   1.2235   0.01792   0.01053   0.0026  0.0947  1.0000  -3.1737   0.0000   0.2317
  10.800   1.2375   0.01826   0.01088   0.0037  0.0922  1.0000  -3.2442   0.0000   0.2305
  11.000   1.2505   0.01860   0.01124   0.0051  0.0897  1.0000  -3.3154   0.0000   0.2291
  11.200   1.2627   0.01897   0.01163   0.0065  0.0870  1.0000  -3.3881   0.0000   0.2277
  11.400   1.2746   0.01937   0.01205   0.0079  0.0843  1.0000  -3.4628   0.0000   0.2263
  11.600   1.2867   0.01980   0.01249   0.0093  0.0815  1.0000  -3.5407   0.0000   0.2250
  11.800   1.2980   0.02028   0.01298   0.0106  0.0785  1.0000  -3.6177   0.0000   0.2237
  12.000   1.3096   0.02078   0.01350   0.0118  0.0755  1.0000  -3.7000   0.0000   0.2225
  12.200   1.3204   0.02134   0.01408   0.0131  0.0722  1.0000  -3.7808   0.0000   0.2212
  12.400   1.3308   0.02195   0.01471   0.0143  0.0690  1.0000  -3.8609   0.0000   0.2200
  12.600   1.3408   0.02261   0.01538   0.0155  0.0657  1.0000  -3.9443   0.0000   0.2189
  12.800   1.3500   0.02333   0.01612   0.0166  0.0625  1.0000  -4.0271   0.0000   0.2177
  13.000   1.3587   0.02412   0.01693   0.0177  0.0592  1.0000  -4.1086   0.0000   0.2166
  13.200   1.3669   0.02497   0.01781   0.0188  0.0562  1.0000  -4.1888   0.0000   0.2155
  13.400   1.3744   0.02590   0.01877   0.0198  0.0532  1.0000  -4.2672   0.0000   0.2145
  13.600   1.3813   0.02692   0.01982   0.0207  0.0505  1.0000  -4.3486   0.0000   0.2135
  13.800   1.3877   0.02800   0.02094   0.0215  0.0478  1.0000  -4.4291   0.0000   0.2126
  14.000   1.3932   0.02922   0.02219   0.0223  0.0455  1.0000  -4.5065   0.0000   0.2117
  14.200   1.3982   0.03052   0.02354   0.0229  0.0431  1.0000  -4.5824   0.0000   0.2109
  14.400   1.4022   0.03197   0.02504   0.0234  0.0410  1.0000  -4.6546   0.0000   0.2101
  14.600   1.4062   0.03350   0.02661   0.0237  0.0392  1.0000  -4.7266   0.0000   0.2095
  14.800   1.4088   0.03520   0.02838   0.0239  0.0374  1.0000  -4.7936   0.0000   0.2089
  15.000   1.4100   0.03713   0.03036   0.0240  0.0357  1.0000  -4.8548   0.0000   0.2084
  15.200   1.4113   0.03912   0.03242   0.0239  0.0343  1.0000  -4.9206   0.0000   0.2080
  15.400   1.4113   0.04131   0.03468   0.0236  0.0330  1.0000  -4.9811   0.0000   0.2077
  15.600   1.4097   0.04377   0.03721   0.0232  0.0318  1.0000  -5.0340   0.0000   0.2075
  15.800   1.4066   0.04648   0.04000   0.0226  0.0307  1.0000  -5.0801   0.0000   0.2074
  16.000   1.4029   0.04934   0.04295   0.0219  0.0298  1.0000  -5.1229   0.0000   0.2074
  16.200   1.3976   0.05247   0.04617   0.0209  0.0289  1.0000  -5.1575   0.0000   0.2075
  16.400   1.3906   0.05590   0.04969   0.0198  0.0281  1.0000  -5.1837   0.0000   0.2076
  16.600   1.3818   0.05965   0.05354   0.0185  0.0274  1.0000  -5.2009   0.0000   0.2080
  16.800   1.3710   0.06376   0.05775   0.0171  0.0269  1.0000  -5.2071   0.0000   0.2084
  17.000   1.3583   0.06821   0.06230   0.0154  0.0264  1.0000  -5.2027   0.0000   0.2090
  17.200   1.3448   0.07285   0.06705   0.0136  0.0259  1.0000  -5.1930   0.0000   0.2097
  17.400   1.3299   0.07779   0.07210   0.0116  0.0255  1.0000  -5.1740   0.0000   0.2105
  17.600   1.3135   0.08297   0.07740   0.0096  0.0252  1.0000  -5.1462   0.0000   0.2115
  17.800   1.2964   0.08836   0.08290   0.0074  0.0249  1.0000  -5.1121   0.0000   0.2126
  18.000   1.2791   0.09385   0.08849   0.0051  0.0245  1.0000  -5.0747   0.0000   0.2138
  18.200   1.2618   0.09937   0.09412   0.0028  0.0242  1.0000  -5.0345   0.0000   0.2151
  18.400   1.2451   0.10487   0.09972   0.0005  0.0239  1.0000  -4.9947   0.0000   0.2164
  18.600   1.2294   0.11031   0.10525  -0.0019  0.0235  1.0000  -4.9568   0.0000   0.2179
  18.800   1.2148   0.11560   0.11063  -0.0043  0.0231  1.0000  -4.9225   0.0000   0.2194
  19.000   1.2013   0.12075   0.11585  -0.0066  0.0228  1.0000  -4.8913   0.0000   0.2209
  19.200   1.1891   0.12575   0.12093  -0.0090  0.0224  1.0000  -4.8645   0.0000   0.2225
  19.400   1.1788   0.13049   0.12575  -0.0113  0.0220  1.0000  -4.8459   0.0000   0.2241
  19.600   1.1703   0.13498   0.13030  -0.0135  0.0216  1.0000  -4.8347   0.0000   0.2256
  19.800   1.1627   0.13933   0.13471  -0.0157  0.0212  1.0000  -4.8277   0.0000   0.2271
  20.000   1.1554   0.14365   0.13910  -0.0180  0.0208  1.0000  -4.8226   0.0000   0.2287
  20.200   1.1494   0.14778   0.14328  -0.0202  0.0203  1.0000  -4.8237   0.0000   0.2302
  20.400   1.1435   0.15195   0.14750  -0.0225  0.0198  1.0000  -4.8231   0.0000   0.2319
  20.600   1.1383   0.15603   0.15163  -0.0248  0.0192  1.0000  -4.8247   0.0000   0.2335
  20.800   1.1336   0.16006   0.15571  -0.0271  0.0187  1.0000  -4.8274   0.0000   0.2352
  21.000   1.1297   0.16399   0.15969  -0.0294  0.0182  1.0000  -4.8333   0.0000   0.2369
  21.200   1.1270   0.16768   0.16343  -0.0316  0.0177  1.0000  -4.8460   0.0000   0.2384
  21.400   1.1246   0.17134   0.16714  -0.0339  0.0172  1.0000  -4.8591   0.0000   0.2400
  21.600   1.1224   0.17498   0.17082  -0.0362  0.0167  1.0000  -4.8719   0.0000   0.2416
  21.800   1.1208   0.17852   0.17440  -0.0384  0.0163  1.0000  -4.8874   0.0000   0.2432
  22.000   1.1190   0.18211   0.17804  -0.0407  0.0159  1.0000  -4.8999   0.0000   0.2448
  22.200   1.1183   0.18553   0.18150  -0.0430  0.0156  1.0000  -4.9185   0.0000   0.2464
  22.400   1.1170   0.18909   0.18510  -0.0453  0.0153  1.0000  -4.9312   0.0000   0.2481
  22.600   1.1163   0.19255   0.18860  -0.0477  0.0149  1.0000  -4.9470   0.0000   0.2497
  22.800   1.1165   0.19583   0.19192  -0.0500  0.0146  1.0000  -4.9683   0.0000   0.2513
  23.000   1.1162   0.19926   0.19540  -0.0523  0.0142  1.0000  -4.9836   0.0000   0.2529
  23.200   1.1165   0.20254   0.19871  -0.0547  0.0138  1.0000  -5.0036   0.0000   0.2545
  23.400   1.1164   0.20597   0.20218  -0.0571  0.0133  1.0000  -5.0171   0.0000   0.2562
  23.600   1.1165   0.20935   0.20560  -0.0595  0.0129  1.0000  -5.0313   0.0000   0.2579
  23.800   1.1168   0.21270   0.20899  -0.0620  0.0125  1.0000  -5.0464   0.0000   0.2595
  24.000   1.1163   0.21628   0.21260  -0.0646  0.0121  1.0000  -5.0526   0.0000   0.2614
  24.200   1.1170   0.21958   0.21594  -0.0671  0.0118  1.0000  -5.0717   0.0000   0.2631
  24.400   1.1180   0.22281   0.21920  -0.0695  0.0115  1.0000  -5.0926   0.0000   0.2647
  24.600   1.1192   0.22598   0.22242  -0.0719  0.0113  1.0000  -5.1138   0.0000   0.2663
  24.800   1.1207   0.22905   0.22553  -0.0743  0.0111  1.0000  -5.1381   0.0000   0.2678
  25.000   1.1219   0.23225   0.22877  -0.0768  0.0108  1.0000  -5.1558   0.0000   0.2694


