xflr5 v6.47

 Calculated polar for: NACA 23015

 1 1 Reynolds number fixed          Mach number fixed         

 xtrf =   1.000 (top)        1.000 (bottom)
 Mach =   0.000     Re =     2.250 e 6     Ncrit =   1.000

  alpha     CL        CD       CDp       Cm    Top Xtr Bot Xtr   Cpmin    Chinge    XCp    
 ------- -------- --------- --------- -------- ------- ------- -------- --------- ---------
 -10.000  -0.9574   0.01298   0.00673  -0.0172  0.6509  0.0105  -6.3104   0.0000   0.2198
  -9.800  -0.9373   0.01280   0.00651  -0.0168  0.6364  0.0106  -6.1359   0.0000   0.2200
  -9.600  -0.9170   0.01264   0.00630  -0.0165  0.6222  0.0108  -5.9627   0.0000   0.2202
  -9.400  -0.8966   0.01247   0.00609  -0.0161  0.6084  0.0110  -5.7911   0.0000   0.2204
  -9.200  -0.8761   0.01231   0.00589  -0.0158  0.5950  0.0112  -5.6210   0.0000   0.2206
  -9.000  -0.8556   0.01215   0.00569  -0.0154  0.5817  0.0115  -5.4525   0.0000   0.2207
  -8.800  -0.8348   0.01201   0.00550  -0.0151  0.5681  0.0117  -5.2856   0.0000   0.2209
  -8.600  -0.8140   0.01187   0.00532  -0.0148  0.5546  0.0119  -5.1204   0.0000   0.2209
  -8.400  -0.7931   0.01173   0.00514  -0.0145  0.5414  0.0120  -4.9571   0.0000   0.2210
  -8.200  -0.7721   0.01160   0.00497  -0.0142  0.5287  0.0122  -4.7955   0.0000   0.2210
  -8.000  -0.7510   0.01146   0.00480  -0.0140  0.5165  0.0124  -4.6357   0.0000   0.2210
  -7.800  -0.7299   0.01133   0.00464  -0.0137  0.5043  0.0126  -4.4777   0.0000   0.2210
  -7.600  -0.7087   0.01121   0.00448  -0.0135  0.4923  0.0129  -4.3301   0.0000   0.2209
  -7.400  -0.6873   0.01109   0.00433  -0.0132  0.4804  0.0131  -4.1850   0.0000   0.2208
  -7.200  -0.6660   0.01099   0.00418  -0.0130  0.4677  0.0134  -4.0415   0.0000   0.2206
  -7.000  -0.6445   0.01088   0.00404  -0.0128  0.4547  0.0136  -3.8999   0.0000   0.2204
  -6.800  -0.6230   0.01079   0.00391  -0.0126  0.4420  0.0139  -3.7599   0.0000   0.2202
  -6.600  -0.6014   0.01070   0.00378  -0.0124  0.4293  0.0141  -3.6216   0.0000   0.2199
  -6.400  -0.5797   0.01061   0.00366  -0.0122  0.4165  0.0143  -3.4852   0.0000   0.2195
  -6.200  -0.5580   0.01053   0.00353  -0.0121  0.4031  0.0147  -3.3505   0.0000   0.2191
  -6.000  -0.5364   0.01046   0.00342  -0.0119  0.3869  0.0151  -3.2179   0.0000   0.2187
  -5.800  -0.5150   0.01042   0.00331  -0.0117  0.3608  0.0158  -3.0882   0.0000   0.2183
  -5.600  -0.4938   0.01043   0.00321  -0.0114  0.3258  0.0163  -2.9609   0.0000   0.2178
  -5.400  -0.4724   0.01042   0.00312  -0.0112  0.2963  0.0166  -2.8351   0.0000   0.2173
  -5.200  -0.4506   0.01039   0.00303  -0.0111  0.2771  0.0170  -2.7102   0.0000   0.2165
  -5.000  -0.4286   0.01034   0.00294  -0.0109  0.2657  0.0173  -2.5867   0.0000   0.2156
  -4.800  -0.4066   0.01028   0.00286  -0.0108  0.2563  0.0177  -2.4684   0.0000   0.2146
  -4.600  -0.3844   0.01022   0.00278  -0.0107  0.2494  0.0180  -2.3566   0.0000   0.2133
  -4.400  -0.3621   0.01016   0.00270  -0.0106  0.2434  0.0183  -2.2463   0.0000   0.2119
  -4.200  -0.3400   0.01010   0.00262  -0.0105  0.2373  0.0192  -2.1379   0.0000   0.2103
  -4.000  -0.3178   0.01004   0.00254  -0.0104  0.2312  0.0203  -2.0310   0.0000   0.2084
  -3.800  -0.2955   0.00999   0.00248  -0.0103  0.2260  0.0211  -1.9259   0.0000   0.2061
  -3.400  -0.2506   0.00989   0.00235  -0.0102  0.2186  0.0220  -1.7207   0.0000   0.2001
  -3.200  -0.2281   0.00985   0.00230  -0.0102  0.2137  0.0224  -1.6208   0.0000   0.1963
  -2.800  -0.1832   0.00975   0.00219  -0.0101  0.2077  0.0248  -1.4350   0.0000   0.1854
  -2.600  -0.1607   0.00971   0.00215  -0.0100  0.2046  0.0261  -1.3472   0.0000   0.1777
  -2.400  -0.1381   0.00967   0.00210  -0.0100  0.2012  0.0268  -1.2609   0.0000   0.1672
  -2.200  -0.1155   0.00964   0.00206  -0.0100  0.1976  0.0277  -1.1762   0.0000   0.1528
  -2.000  -0.0929   0.00961   0.00203  -0.0100  0.1953  0.0288  -1.0929   0.0000   0.1310
  -1.800  -0.0703   0.00958   0.00199  -0.0100  0.1935  0.0306  -1.0111   0.0000   0.0952
  -1.600  -0.0476   0.00954   0.00196  -0.0099  0.1910  0.0325  -0.9367   0.0000   0.0254
  -1.400  -0.0250   0.00952   0.00193  -0.0099  0.1875  0.0337  -0.8640   0.0000  -0.1713
  -1.200  -0.0024   0.00951   0.00192  -0.0099  0.1845  0.0351  -0.7928   0.0000  -4.1527
  -1.000   0.0203   0.00948   0.00189  -0.0099  0.1831  0.0379  -0.7228   0.0000   0.7519
  -0.800   0.0430   0.00946   0.00188  -0.0099  0.1815  0.0401  -0.7060   0.0000   0.4833
  -0.600   0.0658   0.00945   0.00186  -0.0099  0.1789  0.0417  -0.7343   0.0000   0.4003
  -0.400   0.0883   0.00944   0.00185  -0.0099  0.1755  0.0454  -0.7627   0.0000   0.3599
  -0.200   0.1110   0.00943   0.00185  -0.0099  0.1731  0.0482  -0.7914   0.0000   0.3360
   0.000   0.1337   0.00942   0.00184  -0.0099  0.1721  0.0517  -0.8202   0.0000   0.3203
   0.200   0.1564   0.00940   0.00184  -0.0099  0.1705  0.0563  -0.8504   0.0000   0.3091
   0.400   0.1791   0.00940   0.00184  -0.0099  0.1678  0.0613  -0.8809   0.0000   0.3007
   0.600   0.2016   0.00940   0.00185  -0.0099  0.1647  0.0674  -0.9115   0.0000   0.2941
   0.800   0.2242   0.00939   0.00186  -0.0099  0.1627  0.0751  -0.9423   0.0000   0.2889
   1.000   0.2468   0.00937   0.00186  -0.0099  0.1617  0.0870  -0.9734   0.0000   0.2846
   1.200   0.2642   0.00869   0.00175  -0.0092  0.1603  0.2945  -1.0010   0.0000   0.2790
   1.400   0.2852   0.00850   0.00174  -0.0090  0.1579  0.3554  -1.0324   0.0000   0.2755
   1.600   0.3071   0.00845   0.00176  -0.0090  0.1550  0.3859  -1.0649   0.0000   0.2728
   1.800   0.3299   0.00848   0.00179  -0.0090  0.1530  0.3923  -1.0983   0.0000   0.2708
   2.000   0.3527   0.00850   0.00183  -0.0090  0.1520  0.3991  -1.1320   0.0000   0.2690
   2.200   0.3755   0.00853   0.00186  -0.0091  0.1505  0.4058  -1.1668   0.0000   0.2674
   2.400   0.3982   0.00857   0.00190  -0.0091  0.1480  0.4129  -1.2023   0.0000   0.2660
   2.600   0.4208   0.00861   0.00195  -0.0092  0.1452  0.4204  -1.2379   0.0000   0.2646
   2.800   0.4434   0.00866   0.00199  -0.0092  0.1434  0.4276  -1.2739   0.0000   0.2635
   3.000   0.4661   0.00868   0.00204  -0.0092  0.1424  0.4360  -1.3101   0.0000   0.2624
   3.200   0.4888   0.00872   0.00209  -0.0093  0.1408  0.4433  -1.3477   0.0000   0.2614
   3.400   0.5113   0.00877   0.00214  -0.0093  0.1383  0.4521  -1.3858   0.0000   0.2605
   3.600   0.5336   0.00883   0.00220  -0.0093  0.1356  0.4604  -1.4241   0.0000   0.2595
   3.800   0.5562   0.00887   0.00226  -0.0093  0.1341  0.4691  -1.4628   0.0000   0.2587
   4.000   0.5787   0.00891   0.00232  -0.0094  0.1331  0.4786  -1.5018   0.0000   0.2580
   4.200   0.6012   0.00896   0.00238  -0.0094  0.1313  0.4871  -1.5424   0.0000   0.2572
   4.400   0.6234   0.00903   0.00246  -0.0094  0.1286  0.4964  -1.5834   0.0000   0.2565
   4.600   0.6456   0.00909   0.00254  -0.0094  0.1261  0.5068  -1.6245   0.0000   0.2558
   4.800   0.6680   0.00914   0.00261  -0.0094  0.1251  0.5159  -1.6661   0.0000   0.2551
   5.000   0.6903   0.00920   0.00268  -0.0094  0.1237  0.5258  -1.7084   0.0000   0.2545
   5.200   0.7124   0.00926   0.00277  -0.0094  0.1214  0.5371  -1.7522   0.0000   0.2539
   5.400   0.7343   0.00934   0.00286  -0.0094  0.1187  0.5469  -1.7961   0.0000   0.2533
   5.600   0.7564   0.00942   0.00295  -0.0094  0.1170  0.5572  -1.8404   0.0000   0.2527
   5.800   0.7785   0.00948   0.00304  -0.0094  0.1159  0.5685  -1.8851   0.0000   0.2521
   6.000   0.8005   0.00955   0.00313  -0.0094  0.1139  0.5805  -1.9317   0.0000   0.2516
   6.200   0.8222   0.00964   0.00324  -0.0093  0.1111  0.5915  -1.9785   0.0000   0.2510
   6.400   0.8439   0.00974   0.00335  -0.0092  0.1091  0.6027  -2.0256   0.0000   0.2504
   6.600   0.8658   0.00981   0.00346  -0.0092  0.1079  0.6146  -2.0732   0.0000   0.2499
   6.800   0.8875   0.00989   0.00357  -0.0092  0.1057  0.6272  -2.1230   0.0000   0.2493
   7.000   0.9089   0.01000   0.00369  -0.0091  0.1030  0.6403  -2.1729   0.0000   0.2488
   7.200   0.9303   0.01010   0.00382  -0.0090  0.1011  0.6534  -2.2230   0.0000   0.2482
   7.400   0.9517   0.01019   0.00395  -0.0089  0.0995  0.6665  -2.2745   0.0000   0.2477
   7.600   0.9730   0.01030   0.00408  -0.0088  0.0970  0.6798  -2.3275   0.0000   0.2471
   7.800   0.9940   0.01042   0.00423  -0.0087  0.0944  0.6935  -2.3806   0.0000   0.2465
   8.000   1.0151   0.01054   0.00437  -0.0085  0.0925  0.7076  -2.4344   0.0000   0.2460
   8.200   1.0361   0.01065   0.00452  -0.0084  0.0901  0.7221  -2.4906   0.0000   0.2454
   8.400   1.0567   0.01079   0.00469  -0.0082  0.0874  0.7369  -2.5467   0.0000   0.2448
   8.600   1.0773   0.01093   0.00486  -0.0080  0.0850  0.7520  -2.6041   0.0000   0.2442
   8.800   1.0978   0.01106   0.00502  -0.0078  0.0824  0.7672  -2.6635   0.0000   0.2436
   9.000   1.1179   0.01123   0.00522  -0.0075  0.0793  0.7824  -2.7228   0.0000   0.2430
   9.200   1.1380   0.01139   0.00541  -0.0073  0.0768  0.7979  -2.7852   0.0000   0.2424
   9.400   1.1578   0.01156   0.00561  -0.0070  0.0735  0.8137  -2.8479   0.0000   0.2417
   9.600   1.1771   0.01176   0.00584  -0.0066  0.0703  0.8296  -2.9130   0.0000   0.2410
   9.800   1.1964   0.01195   0.00606  -0.0062  0.0668  0.8455  -2.9801   0.0000   0.2403
  10.000   1.2150   0.01218   0.00632  -0.0057  0.0632  0.8614  -3.0487   0.0000   0.2395
  10.200   1.2334   0.01242   0.00658  -0.0052  0.0592  0.8770  -3.1204   0.0000   0.2387
  10.400   1.2515   0.01266   0.00685  -0.0046  0.0557  0.8920  -3.1957   0.0000   0.2379
  10.600   1.2686   0.01296   0.00716  -0.0039  0.0513  0.9069  -3.2731   0.0000   0.2370
  10.800   1.2856   0.01324   0.00747  -0.0031  0.0474  0.9213  -3.3541   0.0000   0.2360
  11.000   1.3023   0.01352   0.00777  -0.0023  0.0442  0.9349  -3.4375   0.0000   0.2351
  11.200   1.3178   0.01386   0.00812  -0.0013  0.0403  0.9480  -3.5235   0.0000   0.2340
  11.400   1.3338   0.01417   0.00844  -0.0004  0.0373  0.9600  -3.6118   0.0000   0.2329
  11.800   1.3676   0.01488   0.00915   0.0009  0.0317  0.9790  -3.8053   0.0000   0.2313
  12.200   1.4028   0.01564   0.00991   0.0017  0.0271  0.9923  -4.0137   0.0000   0.2301
  12.400   1.4191   0.01602   0.01028   0.0023  0.0254  0.9989  -4.1187   0.0000   0.2294
  12.600   1.4323   0.01636   0.01064   0.0036  0.0242  1.0000  -4.2159   0.0000   0.2281
  12.800   1.4436   0.01680   0.01107   0.0051  0.0224  1.0000  -4.3096   0.0000   0.2268
  13.000   1.4559   0.01721   0.01149   0.0064  0.0211  1.0000  -4.4120   0.0000   0.2255
  13.200   1.4682   0.01764   0.01193   0.0076  0.0200  1.0000  -4.5153   0.0000   0.2244
  13.400   1.4803   0.01810   0.01240   0.0088  0.0192  1.0000  -4.6187   0.0000   0.2233
  13.600   1.4919   0.01860   0.01291   0.0099  0.0183  1.0000  -4.7211   0.0000   0.2221
  13.800   1.5033   0.01912   0.01345   0.0111  0.0173  1.0000  -4.8238   0.0000   0.2211
  14.000   1.5139   0.01971   0.01406   0.0122  0.0162  1.0000  -4.9244   0.0000   0.2200
  14.200   1.5236   0.02037   0.01473   0.0134  0.0152  1.0000  -5.0287   0.0000   0.2188
  14.400   1.5346   0.02097   0.01535   0.0143  0.0148  1.0000  -5.1384   0.0000   0.2179
  14.600   1.5453   0.02161   0.01602   0.0152  0.0145  1.0000  -5.2482   0.0000   0.2170
  14.800   1.5553   0.02232   0.01675   0.0161  0.0141  1.0000  -5.3561   0.0000   0.2160
  15.000   1.5643   0.02312   0.01758   0.0170  0.0135  1.0000  -5.4608   0.0000   0.2151
  15.200   1.5718   0.02406   0.01854   0.0179  0.0127  1.0000  -5.5605   0.0000   0.2142
  15.400   1.5785   0.02510   0.01961   0.0188  0.0120  1.0000  -5.6571   0.0000   0.2132
  15.600   1.5859   0.02613   0.02067   0.0194  0.0115  1.0000  -5.7573   0.0000   0.2124
  15.800   1.5931   0.02722   0.02179   0.0200  0.0111  1.0000  -5.8567   0.0000   0.2117
  16.000   1.5998   0.02839   0.02300   0.0205  0.0109  1.0000  -5.9548   0.0000   0.2110
  16.200   1.6057   0.02967   0.02432   0.0209  0.0107  1.0000  -6.0560   0.0000   0.2103
  16.400   1.6108   0.03108   0.02577   0.0212  0.0105  1.0000  -6.1538   0.0000   0.2097
  16.600   1.6149   0.03262   0.02736   0.0214  0.0102  1.0000  -6.2476   0.0000   0.2091
  16.800   1.6179   0.03432   0.02911   0.0215  0.0100  1.0000  -6.3363   0.0000   0.2086
  17.000   1.6195   0.03623   0.03106   0.0214  0.0097  1.0000  -6.4189   0.0000   0.2081
  17.200   1.6196   0.03837   0.03325   0.0213  0.0094  1.0000  -6.4939   0.0000   0.2077
  17.400   1.6186   0.04066   0.03560   0.0210  0.0091  1.0000  -6.5638   0.0000   0.2073
  17.600   1.6168   0.04312   0.03812   0.0205  0.0089  1.0000  -6.6291   0.0000   0.2071
  17.800   1.6136   0.04583   0.04089   0.0199  0.0087  1.0000  -6.6875   0.0000   0.2069
  18.000   1.6087   0.04881   0.04394   0.0192  0.0084  1.0000  -6.7364   0.0000   0.2068
  18.200   1.6014   0.05213   0.04733   0.0182  0.0082  1.0000  -6.7728   0.0000   0.2067
  18.400   1.5922   0.05578   0.05106   0.0171  0.0080  1.0000  -6.7985   0.0000   0.2068
  18.600   1.5811   0.05977   0.05513   0.0158  0.0079  1.0000  -6.8130   0.0000   0.2070
  18.800   1.5677   0.06410   0.05955   0.0143  0.0078  1.0000  -6.8143   0.0000   0.2073
  19.000   1.5521   0.06881   0.06436   0.0127  0.0077  1.0000  -6.8018   0.0000   0.2077
  19.200   1.5343   0.07392   0.06956   0.0108  0.0077  1.0000  -6.7755   0.0000   0.2082
  19.400   1.5139   0.07943   0.07518   0.0087  0.0076  1.0000  -6.7334   0.0000   0.2089
  19.600   1.4914   0.08532   0.08118   0.0065  0.0076  1.0000  -6.6766   0.0000   0.2098
  19.800   1.4674   0.09155   0.08752   0.0040  0.0076  1.0000  -6.6080   0.0000   0.2108
  20.000   1.4420   0.09804   0.09411   0.0014  0.0076  1.0000  -6.5283   0.0000   0.2120
  20.200   1.4168   0.10458   0.10076  -0.0014  0.0076  1.0000  -6.4456   0.0000   0.2134
  20.400   1.3940   0.11087   0.10715  -0.0041  0.0076  1.0000  -6.3726   0.0000   0.2148
  20.600   1.3711   0.11727   0.11365  -0.0070  0.0076  1.0000  -6.2945   0.0000   0.2164
  20.800   1.3507   0.12330   0.11978  -0.0097  0.0075  1.0000  -6.2277   0.0000   0.2180
  21.000   1.3329   0.12903   0.12558  -0.0125  0.0075  1.0000  -6.1726   0.0000   0.2197
  21.200   1.3170   0.13454   0.13117  -0.0153  0.0074  1.0000  -6.1254   0.0000   0.2214
  21.400   1.3031   0.13979   0.13649  -0.0180  0.0074  1.0000  -6.0873   0.0000   0.2231
  21.600   1.2918   0.14459   0.14135  -0.0205  0.0073  1.0000  -6.0630   0.0000   0.2246
  21.800   1.2814   0.14930   0.14611  -0.0231  0.0072  1.0000  -6.0421   0.0000   0.2263
  22.000   1.2712   0.15406   0.15093  -0.0258  0.0071  1.0000  -6.0185   0.0000   0.2280
  22.200   1.2648   0.15818   0.15510  -0.0282  0.0070  1.0000  -6.0190   0.0000   0.2295
  22.400   1.2570   0.16261   0.15958  -0.0308  0.0070  1.0000  -6.0063   0.0000   0.2312
  22.600   1.2517   0.16663   0.16365  -0.0333  0.0069  1.0000  -6.0104   0.0000   0.2328
  22.800   1.2464   0.17066   0.16772  -0.0358  0.0068  1.0000  -6.0155   0.0000   0.2344
  23.000   1.2434   0.17427   0.17137  -0.0381  0.0067  1.0000  -6.0360   0.0000   0.2358
  23.200   1.2386   0.17821   0.17535  -0.0407  0.0066  1.0000  -6.0408   0.0000   0.2374
  23.400   1.2371   0.18154   0.17871  -0.0429  0.0066  1.0000  -6.0705   0.0000   0.2387
  23.600   1.2328   0.18547   0.18269  -0.0456  0.0065  1.0000  -6.0751   0.0000   0.2405
  23.800   1.2319   0.18875   0.18600  -0.0479  0.0064  1.0000  -6.1062   0.0000   0.2418
  24.000   1.2294   0.19237   0.18966  -0.0504  0.0064  1.0000  -6.1224   0.0000   0.2434
  24.200   1.2278   0.19584   0.19316  -0.0529  0.0063  1.0000  -6.1438   0.0000   0.2449
  24.400   1.2274   0.19907   0.19643  -0.0553  0.0061  1.0000  -6.1750   0.0000   0.2463
  24.600   1.2246   0.20285   0.20024  -0.0580  0.0059  1.0000  -6.1817   0.0000   0.2481
  24.800   1.2239   0.20617   0.20360  -0.0605  0.0057  1.0000  -6.2075   0.0000   0.2495
  25.000   1.2228   0.20962   0.20707  -0.0631  0.0055  1.0000  -6.2270   0.0000   0.2511


