xflr5 v6.47

 Calculated polar for: NACA 23015

 1 1 Reynolds number fixed          Mach number fixed         

 xtrf =   1.000 (top)        1.000 (bottom)
 Mach =   0.000     Re =     0.250 e 6     Ncrit =   1.000

  alpha     CL        CD       CDp       Cm    Top Xtr Bot Xtr   Cpmin    Chinge    XCp    
 ------- -------- --------- --------- -------- ------- ------- -------- --------- ---------
 -10.000  -0.8651   0.02334   0.01563  -0.0304  0.9556  0.0160  -5.6883   0.0000   0.2022
  -9.800  -0.8460   0.02281   0.01504  -0.0302  0.9461  0.0164  -5.5340   0.0000   0.2019
  -9.600  -0.8267   0.02229   0.01446  -0.0300  0.9360  0.0167  -5.3805   0.0000   0.2014
  -9.400  -0.8071   0.02179   0.01389  -0.0298  0.9250  0.0170  -5.2280   0.0000   0.2010
  -9.200  -0.7876   0.02131   0.01335  -0.0296  0.9132  0.0173  -5.0775   0.0000   0.2005
  -9.000  -0.7683   0.02085   0.01282  -0.0292  0.9003  0.0176  -4.9291   0.0000   0.2002
  -8.800  -0.7491   0.02042   0.01232  -0.0288  0.8866  0.0178  -4.7827   0.0000   0.1999
  -8.600  -0.7303   0.02002   0.01183  -0.0283  0.8721  0.0181  -4.6388   0.0000   0.1998
  -8.400  -0.7117   0.01963   0.01136  -0.0277  0.8568  0.0183  -4.4970   0.0000   0.1998
  -8.200  -0.6933   0.01928   0.01093  -0.0270  0.8409  0.0187  -4.3563   0.0000   0.1999
  -8.000  -0.6751   0.01895   0.01053  -0.0263  0.8247  0.0191  -4.2186   0.0000   0.2001
  -7.800  -0.6569   0.01863   0.01014  -0.0255  0.8082  0.0197  -4.0898   0.0000   0.2003
  -7.600  -0.6387   0.01833   0.00975  -0.0248  0.7915  0.0202  -3.9627   0.0000   0.2005
  -7.400  -0.6204   0.01805   0.00937  -0.0241  0.7748  0.0208  -3.8373   0.0000   0.2007
  -7.200  -0.6020   0.01779   0.00901  -0.0233  0.7582  0.0213  -3.7132   0.0000   0.2008
  -7.000  -0.5833   0.01753   0.00867  -0.0226  0.7416  0.0218  -3.5902   0.0000   0.2009
  -6.800  -0.5645   0.01729   0.00833  -0.0220  0.7251  0.0222  -3.4682   0.0000   0.2009
  -6.600  -0.5456   0.01706   0.00801  -0.0213  0.7087  0.0225  -3.3467   0.0000   0.2009
  -6.400  -0.5266   0.01684   0.00771  -0.0207  0.6925  0.0230  -3.2258   0.0000   0.2007
  -6.200  -0.5074   0.01663   0.00742  -0.0201  0.6765  0.0237  -3.1059   0.0000   0.2005
  -6.000  -0.4881   0.01644   0.00714  -0.0195  0.6606  0.0245  -2.9873   0.0000   0.2002
  -5.800  -0.4686   0.01625   0.00687  -0.0190  0.6449  0.0253  -2.8702   0.0000   0.1998
  -5.600  -0.4490   0.01608   0.00662  -0.0185  0.6294  0.0261  -2.7544   0.0000   0.1993
  -5.400  -0.4293   0.01591   0.00636  -0.0180  0.6139  0.0268  -2.6396   0.0000   0.1986
  -5.200  -0.4095   0.01575   0.00613  -0.0175  0.5986  0.0276  -2.5260   0.0000   0.1978
  -5.000  -0.3895   0.01560   0.00591  -0.0170  0.5834  0.0283  -2.4184   0.0000   0.1969
  -4.800  -0.3695   0.01546   0.00569  -0.0165  0.5681  0.0294  -2.3155   0.0000   0.1958
  -4.600  -0.3493   0.01534   0.00548  -0.0161  0.5527  0.0305  -2.2139   0.0000   0.1945
  -4.400  -0.3292   0.01521   0.00529  -0.0157  0.5372  0.0316  -2.1133   0.0000   0.1930
  -4.200  -0.3089   0.01510   0.00511  -0.0153  0.5213  0.0329  -2.0141   0.0000   0.1912
  -4.000  -0.2886   0.01501   0.00494  -0.0149  0.5049  0.0340  -1.9164   0.0000   0.1891
  -3.800  -0.2683   0.01493   0.00477  -0.0145  0.4874  0.0354  -1.8202   0.0000   0.1866
  -3.600  -0.2480   0.01486   0.00462  -0.0140  0.4674  0.0369  -1.7254   0.0000   0.1838
  -3.400  -0.2280   0.01484   0.00448  -0.0136  0.4415  0.0387  -1.6326   0.0000   0.1807
  -3.200  -0.2080   0.01485   0.00435  -0.0132  0.4124  0.0404  -1.5425   0.0000   0.1769
  -3.000  -0.1880   0.01485   0.00423  -0.0128  0.3849  0.0423  -1.4593   0.0000   0.1722
  -2.800  -0.1676   0.01484   0.00412  -0.0124  0.3619  0.0446  -1.3770   0.0000   0.1659
  -2.600  -0.1469   0.01481   0.00401  -0.0121  0.3452  0.0469  -1.2953   0.0000   0.1573
  -2.400  -0.1261   0.01477   0.00391  -0.0118  0.3323  0.0497  -1.2146   0.0000   0.1456
  -2.200  -0.1051   0.01474   0.00382  -0.0115  0.3205  0.0528  -1.1351   0.0000   0.1290
  -2.000  -0.0842   0.01470   0.00374  -0.0112  0.3094  0.0563  -1.0569   0.0000   0.1040
  -1.800  -0.0631   0.01466   0.00366  -0.0110  0.2996  0.0605  -0.9833   0.0000   0.0620
  -1.600  -0.0420   0.01463   0.00359  -0.0107  0.2901  0.0653  -0.9134   0.0000  -0.0225
  -1.400  -0.0210   0.01460   0.00353  -0.0104  0.2812  0.0713  -0.8447   0.0000  -0.2768
  -1.200   0.0001   0.01456   0.00347  -0.0102  0.2732  0.0789  -0.7772   0.0000  103.0619
  -1.000   0.0211   0.01452   0.00342  -0.0099  0.2657  0.0890  -0.7110   0.0000   0.7331
  -0.800   0.0419   0.01443   0.00337  -0.0096  0.2589  0.1075  -0.7031   0.0000   0.4833
  -0.600   0.0537   0.01331   0.00310  -0.0083  0.2536  0.3395  -0.7233   0.0000   0.4044
  -0.400   0.0725   0.01306   0.00307  -0.0077  0.2481  0.4029  -0.7487   0.0000   0.3544
  -0.200   0.0917   0.01287   0.00305  -0.0072  0.2426  0.4557  -0.7746   0.0000   0.3247
   0.000   0.1117   0.01278   0.00306  -0.0067  0.2376  0.4898  -0.8013   0.0000   0.3059
   0.200   0.1330   0.01278   0.00307  -0.0065  0.2330  0.5045  -0.8293   0.0000   0.2938
   0.400   0.1546   0.01281   0.00308  -0.0063  0.2286  0.5143  -0.8586   0.0000   0.2854
   0.600   0.1761   0.01285   0.00311  -0.0061  0.2245  0.5244  -0.8880   0.0000   0.2789
   0.800   0.1976   0.01288   0.00314  -0.0059  0.2205  0.5347  -0.9177   0.0000   0.2739
   1.000   0.2190   0.01292   0.00317  -0.0057  0.2169  0.5454  -0.9475   0.0000   0.2698
   1.200   0.2405   0.01296   0.00321  -0.0055  0.2138  0.5564  -0.9777   0.0000   0.2664
   1.400   0.2620   0.01300   0.00326  -0.0052  0.2105  0.5678  -1.0092   0.0000   0.2635
   1.600   0.2833   0.01304   0.00331  -0.0050  0.2072  0.5792  -1.0408   0.0000   0.2611
   1.800   0.3046   0.01310   0.00338  -0.0048  0.2042  0.5909  -1.0726   0.0000   0.2589
   2.000   0.3260   0.01314   0.00344  -0.0046  0.2016  0.6031  -1.1046   0.0000   0.2570
   2.200   0.3473   0.01319   0.00351  -0.0043  0.1989  0.6154  -1.1369   0.0000   0.2554
   2.400   0.3685   0.01325   0.00359  -0.0041  0.1961  0.6280  -1.1706   0.0000   0.2538
   2.600   0.3896   0.01331   0.00368  -0.0038  0.1935  0.6408  -1.2045   0.0000   0.2524
   2.800   0.4107   0.01337   0.00377  -0.0036  0.1910  0.6538  -1.2386   0.0000   0.2511
   3.000   0.4318   0.01343   0.00387  -0.0033  0.1886  0.6670  -1.2729   0.0000   0.2499
   3.200   0.4528   0.01351   0.00398  -0.0031  0.1863  0.6804  -1.3074   0.0000   0.2488
   3.400   0.4737   0.01359   0.00409  -0.0028  0.1838  0.6941  -1.3435   0.0000   0.2477
   3.600   0.4946   0.01366   0.00420  -0.0025  0.1815  0.7079  -1.3798   0.0000   0.2467
   3.800   0.5155   0.01375   0.00433  -0.0022  0.1791  0.7219  -1.4163   0.0000   0.2458
   4.000   0.5363   0.01383   0.00446  -0.0018  0.1770  0.7360  -1.4530   0.0000   0.2449
   4.200   0.5569   0.01393   0.00460  -0.0015  0.1749  0.7503  -1.4900   0.0000   0.2440
   4.400   0.5775   0.01404   0.00475  -0.0012  0.1727  0.7646  -1.5287   0.0000   0.2431
   4.600   0.5982   0.01414   0.00490  -0.0008  0.1704  0.7789  -1.5676   0.0000   0.2423
   4.800   0.6188   0.01425   0.00506  -0.0005  0.1682  0.7931  -1.6067   0.0000   0.2415
   5.000   0.6394   0.01438   0.00523  -0.0001  0.1662  0.8073  -1.6460   0.0000   0.2407
   5.200   0.6599   0.01451   0.00540   0.0002  0.1642  0.8213  -1.6864   0.0000   0.2400
   5.400   0.6806   0.01465   0.00558   0.0005  0.1622  0.8350  -1.7281   0.0000   0.2394
   5.600   0.7015   0.01480   0.00577   0.0008  0.1599  0.8483  -1.7702   0.0000   0.2389
   5.800   0.7226   0.01496   0.00596   0.0010  0.1578  0.8612  -1.8129   0.0000   0.2384
   6.000   0.7438   0.01513   0.00617   0.0011  0.1559  0.8735  -1.8562   0.0000   0.2380
   6.200   0.7652   0.01532   0.00638   0.0012  0.1539  0.8852  -1.9017   0.0000   0.2378
   6.400   0.7870   0.01551   0.00660   0.0012  0.1518  0.8961  -1.9479   0.0000   0.2376
   6.600   0.8090   0.01570   0.00682   0.0012  0.1496  0.9064  -1.9947   0.0000   0.2375
   6.800   0.8311   0.01591   0.00705   0.0011  0.1476  0.9159  -2.0421   0.0000   0.2375
   7.000   0.8530   0.01612   0.00729   0.0010  0.1456  0.9250  -2.0914   0.0000   0.2374
   7.200   0.8750   0.01635   0.00753   0.0008  0.1436  0.9333  -2.1414   0.0000   0.2374
   7.400   0.8971   0.01657   0.00778   0.0006  0.1414  0.9409  -2.1917   0.0000   0.2374
   7.600   0.9189   0.01681   0.00804   0.0005  0.1393  0.9482  -2.2432   0.0000   0.2373
   7.800   0.9402   0.01705   0.00831   0.0005  0.1373  0.9552  -2.2954   0.0000   0.2371
   8.000   0.9616   0.01731   0.00858   0.0003  0.1353  0.9617  -2.3482   0.0000   0.2370
   8.200   0.9828   0.01756   0.00886   0.0003  0.1332  0.9678  -2.4019   0.0000   0.2368
   8.400   1.0034   0.01782   0.00915   0.0003  0.1311  0.9738  -2.4568   0.0000   0.2366
   8.600   1.0239   0.01810   0.00945   0.0003  0.1291  0.9797  -2.5116   0.0000   0.2363
   8.800   1.0440   0.01839   0.00976   0.0004  0.1269  0.9852  -2.5683   0.0000   0.2360
   9.000   1.0639   0.01868   0.01008   0.0005  0.1249  0.9906  -2.6258   0.0000   0.2356
   9.200   1.0836   0.01898   0.01040   0.0006  0.1228  0.9959  -2.6840   0.0000   0.2352
   9.400   1.1018   0.01928   0.01074   0.0010  0.1207  1.0000  -2.7425   0.0000   0.2346
   9.600   1.1164   0.01959   0.01106   0.0022  0.1187  1.0000  -2.7962   0.0000   0.2333
   9.800   1.1309   0.01990   0.01140   0.0033  0.1168  1.0000  -2.8523   0.0000   0.2320
  10.000   1.1454   0.02022   0.01175   0.0044  0.1148  1.0000  -2.9095   0.0000   0.2308
  10.200   1.1596   0.02056   0.01212   0.0055  0.1127  1.0000  -2.9687   0.0000   0.2296
  10.400   1.1729   0.02091   0.01251   0.0068  0.1106  1.0000  -3.0289   0.0000   0.2283
  10.600   1.1851   0.02129   0.01291   0.0082  0.1086  1.0000  -3.0890   0.0000   0.2268
  10.800   1.1974   0.02166   0.01332   0.0095  0.1065  1.0000  -3.1523   0.0000   0.2254
  11.000   1.2094   0.02207   0.01377   0.0109  0.1044  1.0000  -3.2183   0.0000   0.2241
  11.200   1.2212   0.02252   0.01425   0.0122  0.1021  1.0000  -3.2854   0.0000   0.2228
  11.400   1.2328   0.02301   0.01478   0.0134  0.1000  1.0000  -3.3559   0.0000   0.2215
  11.600   1.2445   0.02350   0.01532   0.0146  0.0977  1.0000  -3.4283   0.0000   0.2204
  11.800   1.2556   0.02406   0.01591   0.0157  0.0952  1.0000  -3.5027   0.0000   0.2192
  12.000   1.2661   0.02467   0.01655   0.0169  0.0929  1.0000  -3.5758   0.0000   0.2180
  12.200   1.2769   0.02529   0.01722   0.0179  0.0904  1.0000  -3.6536   0.0000   0.2170
  12.400   1.2867   0.02598   0.01796   0.0190  0.0878  1.0000  -3.7305   0.0000   0.2159
  12.600   1.2957   0.02676   0.01877   0.0200  0.0852  1.0000  -3.8053   0.0000   0.2149
  12.800   1.3048   0.02756   0.01962   0.0209  0.0826  1.0000  -3.8821   0.0000   0.2139
  13.000   1.3129   0.02846   0.02057   0.0218  0.0797  1.0000  -3.9596   0.0000   0.2129
  13.200   1.3202   0.02945   0.02160   0.0226  0.0770  1.0000  -4.0349   0.0000   0.2120
  13.400   1.3271   0.03051   0.02271   0.0234  0.0742  1.0000  -4.1094   0.0000   0.2111
  13.600   1.3326   0.03173   0.02398   0.0241  0.0714  1.0000  -4.1793   0.0000   0.2102
  13.800   1.3380   0.03300   0.02531   0.0246  0.0687  1.0000  -4.2492   0.0000   0.2095
  14.000   1.3422   0.03444   0.02680   0.0251  0.0660  1.0000  -4.3194   0.0000   0.2088
  14.200   1.3453   0.03604   0.02845   0.0254  0.0634  1.0000  -4.3857   0.0000   0.2081
  14.400   1.3479   0.03774   0.03022   0.0256  0.0609  1.0000  -4.4499   0.0000   0.2076
  14.600   1.3489   0.03967   0.03222   0.0256  0.0585  1.0000  -4.5081   0.0000   0.2071
  14.800   1.3494   0.04175   0.03436   0.0255  0.0563  1.0000  -4.5637   0.0000   0.2067
  15.000   1.3485   0.04403   0.03672   0.0252  0.0541  1.0000  -4.6137   0.0000   0.2064
  15.200   1.3459   0.04660   0.03937   0.0248  0.0522  1.0000  -4.6562   0.0000   0.2063
  15.400   1.3429   0.04930   0.04216   0.0241  0.0504  1.0000  -4.6962   0.0000   0.2062
  15.600   1.3382   0.05228   0.04522   0.0233  0.0487  1.0000  -4.7287   0.0000   0.2063
  15.800   1.3315   0.05558   0.04862   0.0223  0.0472  1.0000  -4.7533   0.0000   0.2064
  16.000   1.3233   0.05920   0.05234   0.0210  0.0460  1.0000  -4.7715   0.0000   0.2068
  16.200   1.3142   0.06303   0.05627   0.0196  0.0447  1.0000  -4.7843   0.0000   0.2072
  16.400   1.3032   0.06721   0.06056   0.0180  0.0436  1.0000  -4.7871   0.0000   0.2078
  16.600   1.2904   0.07176   0.06522   0.0162  0.0426  1.0000  -4.7796   0.0000   0.2085
  16.800   1.2757   0.07666   0.07023   0.0142  0.0417  1.0000  -4.7617   0.0000   0.2095
  17.000   1.2593   0.08190   0.07560   0.0120  0.0410  1.0000  -4.7328   0.0000   0.2106
  17.200   1.2423   0.08736   0.08117   0.0097  0.0404  1.0000  -4.6982   0.0000   0.2118
  17.400   1.2247   0.09298   0.08691   0.0073  0.0398  1.0000  -4.6584   0.0000   0.2132
  17.600   1.2066   0.09874   0.09280   0.0047  0.0392  1.0000  -4.6128   0.0000   0.2147
  17.800   1.1884   0.10462   0.09879   0.0021  0.0386  1.0000  -4.5635   0.0000   0.2164
  18.000   1.1707   0.11052   0.10479  -0.0005  0.0380  1.0000  -4.5132   0.0000   0.2182
  18.200   1.1536   0.11638   0.11075  -0.0032  0.0373  1.0000  -4.4625   0.0000   0.2201
  18.400   1.1375   0.12213   0.11659  -0.0059  0.0366  1.0000  -4.4141   0.0000   0.2221
  18.600   1.1226   0.12777   0.12232  -0.0087  0.0359  1.0000  -4.3679   0.0000   0.2242
  18.800   1.1102   0.13306   0.12769  -0.0113  0.0351  1.0000  -4.3329   0.0000   0.2262
  19.000   1.0995   0.13810   0.13280  -0.0138  0.0342  1.0000  -4.3040   0.0000   0.2282
  19.200   1.0897   0.14302   0.13779  -0.0164  0.0333  1.0000  -4.2773   0.0000   0.2302
  19.400   1.0807   0.14785   0.14268  -0.0189  0.0324  1.0000  -4.2527   0.0000   0.2323
  19.600   1.0730   0.15252   0.14741  -0.0214  0.0315  1.0000  -4.2324   0.0000   0.2344
  19.800   1.0668   0.15695   0.15190  -0.0239  0.0306  1.0000  -4.2189   0.0000   0.2364
  20.000   1.0622   0.16110   0.15610  -0.0263  0.0298  1.0000  -4.2134   0.0000   0.2383
  20.200   1.0585   0.16510   0.16016  -0.0286  0.0288  1.0000  -4.2116   0.0000   0.2402
  20.400   1.0549   0.16915   0.16425  -0.0310  0.0279  1.0000  -4.2078   0.0000   0.2421
  20.600   1.0518   0.17310   0.16824  -0.0333  0.0270  1.0000  -4.2052   0.0000   0.2441
  20.800   1.0490   0.17701   0.17220  -0.0357  0.0262  1.0000  -4.2031   0.0000   0.2460
  21.000   1.0479   0.18060   0.17584  -0.0380  0.0254  1.0000  -4.2120   0.0000   0.2478
  21.200   1.0468   0.18422   0.17950  -0.0402  0.0246  1.0000  -4.2218   0.0000   0.2496
  21.400   1.0462   0.18777   0.18309  -0.0425  0.0238  1.0000  -4.2334   0.0000   0.2513
  21.600   1.0451   0.19145   0.18681  -0.0449  0.0230  1.0000  -4.2395   0.0000   0.2532
  21.800   1.0445   0.19505   0.19045  -0.0473  0.0223  1.0000  -4.2474   0.0000   0.2551
  22.000   1.0450   0.19846   0.19389  -0.0496  0.0216  1.0000  -4.2618   0.0000   0.2568
  22.200   1.0456   0.20180   0.19729  -0.0519  0.0209  1.0000  -4.2769   0.0000   0.2585
  22.400   1.0463   0.20518   0.20070  -0.0542  0.0202  1.0000  -4.2902   0.0000   0.2603
  22.600   1.0470   0.20859   0.20415  -0.0565  0.0196  1.0000  -4.3012   0.0000   0.2620
  22.800   1.0478   0.21196   0.20756  -0.0589  0.0190  1.0000  -4.3126   0.0000   0.2638
  23.000   1.0486   0.21539   0.21102  -0.0613  0.0184  1.0000  -4.3206   0.0000   0.2656
  23.200   1.0502   0.21861   0.21428  -0.0636  0.0179  1.0000  -4.3353   0.0000   0.2673
  23.400   1.0518   0.22183   0.21755  -0.0660  0.0173  1.0000  -4.3489   0.0000   0.2689
  23.600   1.0531   0.22516   0.22091  -0.0684  0.0167  1.0000  -4.3566   0.0000   0.2707
  23.800   1.0545   0.22847   0.22426  -0.0708  0.0161  1.0000  -4.3635   0.0000   0.2725
  24.000   1.0558   0.23182   0.22764  -0.0733  0.0155  1.0000  -4.3680   0.0000   0.2742
  24.200   1.0572   0.23515   0.23101  -0.0758  0.0150  1.0000  -4.3719   0.0000   0.2760
  24.400   1.0594   0.23830   0.23420  -0.0781  0.0146  1.0000  -4.3818   0.0000   0.2777
  24.600   1.0612   0.24157   0.23752  -0.0806  0.0142  1.0000  -4.3899   0.0000   0.2794
  24.800   1.0631   0.24485   0.24084  -0.0831  0.0138  1.0000  -4.3966   0.0000   0.2811
  25.000   1.0649   0.24819   0.24423  -0.0856  0.0133  1.0000  -4.3990   0.0000   0.2829


