xflr5 v6.47

 Calculated polar for: NACA 23015

 1 1 Reynolds number fixed          Mach number fixed         

 xtrf =   1.000 (top)        1.000 (bottom)
 Mach =   0.000     Re =     1.200 e 6     Ncrit =   1.000

  alpha     CL        CD       CDp       Cm    Top Xtr Bot Xtr   Cpmin    Chinge    XCp    
 ------- -------- --------- --------- -------- ------- ------- -------- --------- ---------
 -10.000  -0.9351   0.01472   0.00815  -0.0205  0.7482  0.0118  -6.1838   0.0000   0.2157
  -9.800  -0.9159   0.01451   0.00787  -0.0200  0.7314  0.0120  -6.0156   0.0000   0.2161
  -9.600  -0.8966   0.01430   0.00760  -0.0195  0.7151  0.0122  -5.8486   0.0000   0.2164
  -9.400  -0.8771   0.01410   0.00735  -0.0190  0.6990  0.0124  -5.6827   0.0000   0.2166
  -9.200  -0.8574   0.01390   0.00709  -0.0185  0.6833  0.0126  -5.5180   0.0000   0.2169
  -9.000  -0.8376   0.01372   0.00685  -0.0181  0.6678  0.0128  -5.3547   0.0000   0.2171
  -8.800  -0.8176   0.01354   0.00662  -0.0177  0.6526  0.0130  -5.1927   0.0000   0.2172
  -8.600  -0.7975   0.01337   0.00639  -0.0173  0.6378  0.0132  -5.0322   0.0000   0.2174
  -8.400  -0.7772   0.01320   0.00617  -0.0169  0.6233  0.0134  -4.8731   0.0000   0.2175
  -8.200  -0.7568   0.01304   0.00596  -0.0165  0.6089  0.0136  -4.7156   0.0000   0.2175
  -8.000  -0.7363   0.01289   0.00576  -0.0162  0.5948  0.0139  -4.5596   0.0000   0.2175
  -7.800  -0.7157   0.01274   0.00556  -0.0158  0.5808  0.0141  -4.4079   0.0000   0.2175
  -7.600  -0.6950   0.01260   0.00537  -0.0155  0.5672  0.0143  -4.2646   0.0000   0.2175
  -7.400  -0.6741   0.01246   0.00519  -0.0152  0.5536  0.0145  -4.1229   0.0000   0.2174
  -7.200  -0.6532   0.01233   0.00501  -0.0149  0.5402  0.0147  -3.9826   0.0000   0.2172
  -7.000  -0.6323   0.01221   0.00483  -0.0146  0.5269  0.0151  -3.8438   0.0000   0.2170
  -6.800  -0.6114   0.01207   0.00466  -0.0144  0.5135  0.0156  -3.7066   0.0000   0.2168
  -6.600  -0.5903   0.01195   0.00450  -0.0141  0.5003  0.0162  -3.5710   0.0000   0.2166
  -6.400  -0.5691   0.01184   0.00435  -0.0138  0.4871  0.0166  -3.4371   0.0000   0.2162
  -6.200  -0.5479   0.01174   0.00419  -0.0136  0.4738  0.0170  -3.3050   0.0000   0.2158
  -6.000  -0.5265   0.01164   0.00405  -0.0134  0.4604  0.0173  -3.1747   0.0000   0.2153
  -5.800  -0.5051   0.01155   0.00392  -0.0131  0.4466  0.0176  -3.0461   0.0000   0.2148
  -5.600  -0.4837   0.01147   0.00379  -0.0129  0.4322  0.0179  -2.9194   0.0000   0.2141
  -5.400  -0.4622   0.01140   0.00367  -0.0127  0.4166  0.0182  -2.7945   0.0000   0.2134
  -5.200  -0.4410   0.01137   0.00355  -0.0125  0.3925  0.0185  -2.6721   0.0000   0.2126
  -5.000  -0.4201   0.01138   0.00345  -0.0122  0.3581  0.0192  -2.5526   0.0000   0.2120
  -4.800  -0.3992   0.01139   0.00335  -0.0119  0.3231  0.0202  -2.4403   0.0000   0.2112
  -4.600  -0.3779   0.01137   0.00325  -0.0117  0.2993  0.0210  -2.3313   0.0000   0.2101
  -4.400  -0.3562   0.01132   0.00316  -0.0116  0.2871  0.0216  -2.2232   0.0000   0.2087
  -4.200  -0.3343   0.01127   0.00307  -0.0114  0.2776  0.0220  -2.1165   0.0000   0.2070
  -4.000  -0.3124   0.01121   0.00298  -0.0113  0.2691  0.0225  -2.0114   0.0000   0.2050
  -3.800  -0.2905   0.01116   0.00290  -0.0111  0.2610  0.0231  -1.9080   0.0000   0.2028
  -3.600  -0.2685   0.01109   0.00282  -0.0110  0.2551  0.0240  -1.8059   0.0000   0.2000
  -3.400  -0.2465   0.01105   0.00275  -0.0109  0.2474  0.0253  -1.7057   0.0000   0.1968
  -3.200  -0.2244   0.01100   0.00268  -0.0108  0.2407  0.0264  -1.6071   0.0000   0.1929
  -3.000  -0.2023   0.01095   0.00262  -0.0106  0.2359  0.0274  -1.5133   0.0000   0.1880
  -2.800  -0.1801   0.01090   0.00256  -0.0106  0.2314  0.0282  -1.4250   0.0000   0.1818
  -2.600  -0.1580   0.01087   0.00250  -0.0105  0.2261  0.0293  -1.3383   0.0000   0.1739
  -2.400  -0.1357   0.01083   0.00245  -0.0104  0.2210  0.0308  -1.2530   0.0000   0.1632
  -2.200  -0.1135   0.01079   0.00240  -0.0103  0.2172  0.0327  -1.1691   0.0000   0.1485
  -2.000  -0.0912   0.01075   0.00235  -0.0102  0.2145  0.0341  -1.0867   0.0000   0.1261
  -1.800  -0.0688   0.01072   0.00232  -0.0102  0.2109  0.0353  -1.0062   0.0000   0.0891
  -1.600  -0.0466   0.01069   0.00228  -0.0101  0.2068  0.0374  -0.9330   0.0000   0.0172
  -1.400  -0.0243   0.01067   0.00225  -0.0100  0.2036  0.0400  -0.8610   0.0000  -0.1877
  -1.200  -0.0018   0.01064   0.00222  -0.0100  0.2016  0.0418  -0.7902   0.0000  -5.4823
  -1.000   0.0206   0.01061   0.00219  -0.0099  0.1990  0.0446  -0.7208   0.0000   0.7456
  -0.800   0.0429   0.01059   0.00217  -0.0099  0.1957  0.0479  -0.7059   0.0000   0.4827
  -0.600   0.0653   0.01058   0.00216  -0.0098  0.1927  0.0509  -0.7339   0.0000   0.3997
  -0.400   0.0877   0.01056   0.00214  -0.0098  0.1902  0.0551  -0.7621   0.0000   0.3591
  -0.200   0.1101   0.01054   0.00213  -0.0097  0.1884  0.0596  -0.7905   0.0000   0.3350
   0.000   0.1325   0.01053   0.00213  -0.0097  0.1860  0.0651  -0.8191   0.0000   0.3191
   0.200   0.1548   0.01052   0.00213  -0.0096  0.1832  0.0720  -0.8488   0.0000   0.3077
   0.400   0.1771   0.01050   0.00213  -0.0096  0.1806  0.0812  -0.8790   0.0000   0.2992
   0.600   0.1992   0.01045   0.00212  -0.0095  0.1784  0.0993  -0.9092   0.0000   0.2925
   0.800   0.2150   0.00962   0.00196  -0.0086  0.1770  0.3232  -0.9343   0.0000   0.2845
   1.000   0.2358   0.00943   0.00196  -0.0084  0.1749  0.3802  -0.9638   0.0000   0.2797
   1.200   0.2573   0.00935   0.00197  -0.0082  0.1726  0.4157  -0.9949   0.0000   0.2759
   1.400   0.2798   0.00937   0.00200  -0.0082  0.1700  0.4243  -1.0275   0.0000   0.2731
   1.600   0.3023   0.00940   0.00203  -0.0082  0.1678  0.4318  -1.0605   0.0000   0.2708
   1.800   0.3249   0.00942   0.00206  -0.0082  0.1662  0.4397  -1.0936   0.0000   0.2687
   2.000   0.3473   0.00946   0.00210  -0.0082  0.1643  0.4477  -1.1269   0.0000   0.2669
   2.200   0.3698   0.00950   0.00214  -0.0082  0.1621  0.4560  -1.1612   0.0000   0.2653
   2.400   0.3922   0.00953   0.00219  -0.0082  0.1596  0.4646  -1.1964   0.0000   0.2638
   2.600   0.4146   0.00957   0.00224  -0.0082  0.1575  0.4733  -1.2318   0.0000   0.2625
   2.800   0.4370   0.00961   0.00229  -0.0082  0.1560  0.4825  -1.2675   0.0000   0.2614
   3.000   0.4593   0.00965   0.00235  -0.0081  0.1541  0.4918  -1.3033   0.0000   0.2602
   3.200   0.4816   0.00970   0.00241  -0.0081  0.1521  0.5011  -1.3401   0.0000   0.2592
   3.400   0.5038   0.00974   0.00247  -0.0081  0.1497  0.5112  -1.3780   0.0000   0.2583
   3.600   0.5261   0.00979   0.00253  -0.0081  0.1477  0.5211  -1.4160   0.0000   0.2574
   3.800   0.5483   0.00984   0.00260  -0.0081  0.1463  0.5312  -1.4543   0.0000   0.2566
   4.000   0.5704   0.00990   0.00268  -0.0080  0.1444  0.5419  -1.4928   0.0000   0.2558
   4.200   0.5924   0.00996   0.00276  -0.0080  0.1423  0.5525  -1.5326   0.0000   0.2550
   4.400   0.6145   0.01001   0.00284  -0.0080  0.1400  0.5635  -1.5733   0.0000   0.2543
   4.600   0.6365   0.01007   0.00292  -0.0079  0.1383  0.5746  -1.6141   0.0000   0.2536
   5.000   0.6803   0.01021   0.00311  -0.0078  0.1347  0.5979  -1.6965   0.0000   0.2523
   5.200   0.7021   0.01028   0.00320  -0.0077  0.1326  0.6098  -1.7399   0.0000   0.2516
   5.400   0.7239   0.01035   0.00330  -0.0077  0.1305  0.6219  -1.7834   0.0000   0.2510
   5.600   0.7456   0.01042   0.00340  -0.0076  0.1290  0.6343  -1.8273   0.0000   0.2504
   5.800   0.7672   0.01050   0.00352  -0.0075  0.1271  0.6470  -1.8712   0.0000   0.2498
   6.000   0.7887   0.01059   0.00363  -0.0074  0.1250  0.6601  -1.9167   0.0000   0.2492
   6.200   0.8102   0.01068   0.00375  -0.0073  0.1229  0.6735  -1.9631   0.0000   0.2486
   6.400   0.8316   0.01076   0.00387  -0.0072  0.1213  0.6871  -2.0098   0.0000   0.2481
   6.600   0.8529   0.01085   0.00400  -0.0071  0.1194  0.7009  -2.0566   0.0000   0.2475
   6.800   0.8740   0.01096   0.00414  -0.0069  0.1172  0.7151  -2.1049   0.0000   0.2469
   7.000   0.8951   0.01105   0.00428  -0.0068  0.1151  0.7296  -2.1543   0.0000   0.2463
   7.200   0.9162   0.01115   0.00441  -0.0066  0.1134  0.7442  -2.2039   0.0000   0.2457
   7.400   0.9371   0.01126   0.00457  -0.0064  0.1113  0.7590  -2.2539   0.0000   0.2451
   7.600   0.9576   0.01139   0.00473  -0.0062  0.1090  0.7740  -2.3057   0.0000   0.2445
   7.800   0.9783   0.01150   0.00489  -0.0060  0.1070  0.7892  -2.3580   0.0000   0.2439
   8.000   0.9988   0.01161   0.00505  -0.0057  0.1052  0.8046  -2.4106   0.0000   0.2433
   8.200   1.0190   0.01174   0.00522  -0.0054  0.1027  0.8199  -2.4653   0.0000   0.2426
   8.400   1.0389   0.01189   0.00542  -0.0051  0.1004  0.8353  -2.5201   0.0000   0.2419
   8.600   1.0590   0.01203   0.00560  -0.0048  0.0984  0.8504  -2.5758   0.0000   0.2413
   8.800   1.0787   0.01217   0.00579  -0.0044  0.0960  0.8652  -2.6338   0.0000   0.2406
   9.000   1.0979   0.01235   0.00601  -0.0039  0.0934  0.8797  -2.6913   0.0000   0.2398
   9.200   1.1170   0.01252   0.00622  -0.0034  0.0912  0.8937  -2.7512   0.0000   0.2390
   9.400   1.1360   0.01270   0.00643  -0.0029  0.0886  0.9071  -2.8120   0.0000   0.2382
   9.600   1.1542   0.01292   0.00668  -0.0023  0.0857  0.9200  -2.8743   0.0000   0.2374
   9.800   1.1727   0.01313   0.00691  -0.0017  0.0833  0.9320  -2.9384   0.0000   0.2366
  10.000   1.1910   0.01336   0.00717  -0.0011  0.0801  0.9431  -3.0056   0.0000   0.2358
  10.200   1.2094   0.01363   0.00744  -0.0006  0.0771  0.9532  -3.0758   0.0000   0.2350
  10.400   1.2284   0.01391   0.00772  -0.0003  0.0737  0.9618  -3.1507   0.0000   0.2344
  10.600   1.2476   0.01423   0.00804  -0.0000  0.0701  0.9694  -3.2297   0.0000   0.2339
  10.800   1.2670   0.01457   0.00836   0.0001  0.0661  0.9759  -3.3133   0.0000   0.2335
  11.000   1.2860   0.01493   0.00872   0.0003  0.0623  0.9818  -3.4010   0.0000   0.2330
  11.200   1.3043   0.01534   0.00910   0.0006  0.0580  0.9874  -3.4908   0.0000   0.2325
  11.400   1.3223   0.01573   0.00949   0.0009  0.0539  0.9927  -3.5831   0.0000   0.2320
  11.600   1.3395   0.01616   0.00990   0.0013  0.0501  0.9980  -3.6773   0.0000   0.2313
  11.800   1.3526   0.01658   0.01032   0.0026  0.0465  1.0000  -3.7647   0.0000   0.2301
  12.000   1.3642   0.01698   0.01072   0.0041  0.0436  1.0000  -3.8489   0.0000   0.2286
  12.200   1.3749   0.01744   0.01117   0.0057  0.0406  1.0000  -3.9344   0.0000   0.2271
  12.400   1.3865   0.01789   0.01162   0.0072  0.0380  1.0000  -4.0251   0.0000   0.2258
  12.600   1.3974   0.01840   0.01214   0.0086  0.0356  1.0000  -4.1145   0.0000   0.2245
  12.800   1.4087   0.01890   0.01265   0.0098  0.0333  1.0000  -4.2059   0.0000   0.2232
  13.000   1.4193   0.01947   0.01323   0.0111  0.0312  1.0000  -4.2962   0.0000   0.2220
  13.200   1.4301   0.02004   0.01382   0.0123  0.0294  1.0000  -4.3927   0.0000   0.2209
  13.400   1.4405   0.02066   0.01445   0.0135  0.0277  1.0000  -4.4888   0.0000   0.2197
  13.600   1.4502   0.02133   0.01514   0.0146  0.0263  1.0000  -4.5834   0.0000   0.2186
  13.800   1.4602   0.02201   0.01585   0.0157  0.0250  1.0000  -4.6794   0.0000   0.2176
  14.000   1.4691   0.02279   0.01665   0.0167  0.0235  1.0000  -4.7724   0.0000   0.2166
  14.200   1.4771   0.02366   0.01754   0.0177  0.0222  1.0000  -4.8626   0.0000   0.2155
  14.400   1.4861   0.02450   0.01841   0.0185  0.0214  1.0000  -4.9595   0.0000   0.2146
  14.600   1.4946   0.02539   0.01934   0.0193  0.0207  1.0000  -5.0587   0.0000   0.2138
  14.800   1.5020   0.02641   0.02039   0.0200  0.0198  1.0000  -5.1540   0.0000   0.2129
  15.000   1.5079   0.02760   0.02162   0.0207  0.0188  1.0000  -5.2437   0.0000   0.2121
  15.200   1.5135   0.02885   0.02291   0.0213  0.0179  1.0000  -5.3328   0.0000   0.2113
  15.400   1.5189   0.03018   0.02428   0.0217  0.0171  1.0000  -5.4212   0.0000   0.2106
  15.600   1.5237   0.03163   0.02577   0.0220  0.0165  1.0000  -5.5071   0.0000   0.2100
  15.800   1.5279   0.03317   0.02736   0.0222  0.0160  1.0000  -5.5911   0.0000   0.2094
  16.000   1.5311   0.03487   0.02911   0.0223  0.0156  1.0000  -5.6707   0.0000   0.2089
  16.200   1.5333   0.03674   0.03104   0.0223  0.0153  1.0000  -5.7457   0.0000   0.2085
  16.400   1.5343   0.03879   0.03316   0.0221  0.0149  1.0000  -5.8158   0.0000   0.2081
  16.600   1.5345   0.04099   0.03542   0.0218  0.0145  1.0000  -5.8832   0.0000   0.2078
  16.800   1.5330   0.04345   0.03794   0.0214  0.0141  1.0000  -5.9461   0.0000   0.2076
  17.000   1.5298   0.04617   0.04073   0.0207  0.0136  1.0000  -6.0009   0.0000   0.2074
  17.200   1.5249   0.04919   0.04382   0.0199  0.0132  1.0000  -6.0465   0.0000   0.2074
  17.400   1.5178   0.05253   0.04724   0.0190  0.0128  1.0000  -6.0810   0.0000   0.2074
  17.600   1.5087   0.05623   0.05103   0.0178  0.0125  1.0000  -6.1040   0.0000   0.2075
  17.800   1.4976   0.06028   0.05517   0.0164  0.0122  1.0000  -6.1160   0.0000   0.2078
  18.000   1.4844   0.06466   0.05965   0.0149  0.0120  1.0000  -6.1161   0.0000   0.2082
  18.200   1.4693   0.06939   0.06449   0.0131  0.0119  1.0000  -6.1043   0.0000   0.2087
  18.400   1.4527   0.07444   0.06963   0.0112  0.0118  1.0000  -6.0824   0.0000   0.2094
  18.600   1.4339   0.07984   0.07515   0.0092  0.0118  1.0000  -6.0470   0.0000   0.2102
  18.800   1.4132   0.08558   0.08100   0.0069  0.0117  1.0000  -5.9989   0.0000   0.2111
  19.000   1.3915   0.09158   0.08711   0.0045  0.0117  1.0000  -5.9421   0.0000   0.2122
  19.200   1.3694   0.09769   0.09333   0.0020  0.0117  1.0000  -5.8802   0.0000   0.2135
  19.400   1.3473   0.10388   0.09963  -0.0005  0.0117  1.0000  -5.8143   0.0000   0.2148
  19.600   1.3262   0.11000   0.10586  -0.0032  0.0116  1.0000  -5.7509   0.0000   0.2163
  19.800   1.3068   0.11595   0.11190  -0.0058  0.0116  1.0000  -5.6930   0.0000   0.2179
  20.000   1.2894   0.12160   0.11763  -0.0084  0.0115  1.0000  -5.6434   0.0000   0.2194
  20.200   1.2739   0.12703   0.12314  -0.0110  0.0115  1.0000  -5.6018   0.0000   0.2210
  20.400   1.2602   0.13225   0.12844  -0.0135  0.0114  1.0000  -5.5672   0.0000   0.2227
  20.600   1.2481   0.13726   0.13352  -0.0160  0.0113  1.0000  -5.5397   0.0000   0.2243
  20.800   1.2381   0.14192   0.13825  -0.0185  0.0112  1.0000  -5.5228   0.0000   0.2259
  21.000   1.2294   0.14638   0.14276  -0.0208  0.0110  1.0000  -5.5118   0.0000   0.2274
  21.200   1.2209   0.15089   0.14733  -0.0233  0.0109  1.0000  -5.4990   0.0000   0.2291
  21.400   1.2152   0.15492   0.15142  -0.0256  0.0108  1.0000  -5.5027   0.0000   0.2305
  21.600   1.2086   0.15918   0.15573  -0.0280  0.0106  1.0000  -5.4980   0.0000   0.2322
  21.800   1.2044   0.16302   0.15961  -0.0303  0.0105  1.0000  -5.5078   0.0000   0.2336
  22.000   1.1994   0.16707   0.16371  -0.0327  0.0103  1.0000  -5.5089   0.0000   0.2353
  22.200   1.1960   0.17080   0.16748  -0.0351  0.0100  1.0000  -5.5210   0.0000   0.2368
  22.400   1.1914   0.17480   0.17152  -0.0376  0.0098  1.0000  -5.5218   0.0000   0.2385
  22.600   1.1888   0.17842   0.17518  -0.0399  0.0095  1.0000  -5.5355   0.0000   0.2401
  22.800   1.1846   0.18240   0.17920  -0.0425  0.0092  1.0000  -5.5348   0.0000   0.2419
  23.000   1.1833   0.18581   0.18265  -0.0448  0.0090  1.0000  -5.5551   0.0000   0.2433
  23.200   1.1810   0.18945   0.18633  -0.0473  0.0088  1.0000  -5.5659   0.0000   0.2450
  23.400   1.1800   0.19286   0.18977  -0.0496  0.0085  1.0000  -5.5888   0.0000   0.2465
  23.600   1.1798   0.19614   0.19308  -0.0520  0.0083  1.0000  -5.6178   0.0000   0.2479
  23.800   1.1781   0.19972   0.19670  -0.0545  0.0081  1.0000  -5.6326   0.0000   0.2496
  24.000   1.1785   0.20289   0.19990  -0.0568  0.0079  1.0000  -5.6640   0.0000   0.2510
  24.200   1.1786   0.20611   0.20316  -0.0592  0.0078  1.0000  -5.6924   0.0000   0.2525
  24.400   1.1782   0.20950   0.20658  -0.0617  0.0076  1.0000  -5.7129   0.0000   0.2541
  24.600   1.1790   0.21260   0.20971  -0.0640  0.0075  1.0000  -5.7449   0.0000   0.2555
  24.800   1.1793   0.21581   0.21296  -0.0665  0.0073  1.0000  -5.7710   0.0000   0.2570
  25.000   1.1793   0.21913   0.21630  -0.0690  0.0072  1.0000  -5.7915   0.0000   0.2586


