xflr5 v6.47

 Calculated polar for: NACA 23015

 1 1 Reynolds number fixed          Mach number fixed         

 xtrf =   1.000 (top)        1.000 (bottom)
 Mach =   0.000     Re =     0.600 e 6     Ncrit =   1.000

  alpha     CL        CD       CDp       Cm    Top Xtr Bot Xtr   Cpmin    Chinge    XCp    
 ------- -------- --------- --------- -------- ------- ------- -------- --------- ---------
 -10.000  -0.8995   0.01733   0.01045  -0.0262  0.8617  0.0135  -5.9771   0.0000   0.2084
  -9.800  -0.8822   0.01705   0.01009  -0.0253  0.8444  0.0136  -5.8207   0.0000   0.2090
  -9.600  -0.8646   0.01678   0.00974  -0.0245  0.8271  0.0138  -5.6647   0.0000   0.2096
  -9.400  -0.8466   0.01652   0.00939  -0.0238  0.8096  0.0140  -5.5090   0.0000   0.2101
  -9.200  -0.8284   0.01628   0.00907  -0.0231  0.7923  0.0142  -5.3539   0.0000   0.2105
  -9.000  -0.8099   0.01605   0.00875  -0.0224  0.7750  0.0144  -5.1997   0.0000   0.2109
  -8.800  -0.7912   0.01582   0.00844  -0.0217  0.7580  0.0146  -5.0462   0.0000   0.2112
  -8.600  -0.7722   0.01560   0.00814  -0.0211  0.7412  0.0148  -4.8936   0.0000   0.2115
  -8.400  -0.7531   0.01539   0.00785  -0.0206  0.7246  0.0150  -4.7420   0.0000   0.2117
  -8.200  -0.7339   0.01517   0.00757  -0.0200  0.7082  0.0154  -4.5913   0.0000   0.2119
  -8.000  -0.7146   0.01497   0.00730  -0.0195  0.6922  0.0159  -4.4418   0.0000   0.2121
  -7.800  -0.6950   0.01478   0.00704  -0.0190  0.6764  0.0163  -4.2996   0.0000   0.2122
  -7.600  -0.6753   0.01459   0.00679  -0.0185  0.6608  0.0167  -4.1620   0.0000   0.2122
  -7.400  -0.6554   0.01442   0.00655  -0.0181  0.6455  0.0171  -4.0259   0.0000   0.2122
  -7.200  -0.6353   0.01425   0.00631  -0.0177  0.6303  0.0174  -3.8911   0.0000   0.2121
  -7.000  -0.6152   0.01409   0.00609  -0.0173  0.6155  0.0176  -3.7577   0.0000   0.2120
  -6.800  -0.5949   0.01394   0.00587  -0.0169  0.6008  0.0179  -3.6256   0.0000   0.2118
  -6.600  -0.5745   0.01379   0.00566  -0.0165  0.5863  0.0182  -3.4949   0.0000   0.2116
  -6.400  -0.5540   0.01365   0.00546  -0.0161  0.5719  0.0185  -3.3655   0.0000   0.2113
  -6.200  -0.5334   0.01351   0.00526  -0.0158  0.5575  0.0190  -3.2375   0.0000   0.2109
  -6.000  -0.5129   0.01337   0.00508  -0.0154  0.5433  0.0196  -3.1108   0.0000   0.2105
  -5.800  -0.4921   0.01325   0.00490  -0.0151  0.5292  0.0204  -2.9857   0.0000   0.2099
  -5.600  -0.4713   0.01313   0.00473  -0.0148  0.5150  0.0211  -2.8624   0.0000   0.2093
  -5.400  -0.4504   0.01302   0.00456  -0.0145  0.5007  0.0217  -2.7408   0.0000   0.2086
  -5.200  -0.4294   0.01293   0.00441  -0.0142  0.4861  0.0221  -2.6208   0.0000   0.2077
  -5.000  -0.4084   0.01284   0.00426  -0.0139  0.4711  0.0226  -2.5029   0.0000   0.2068
  -4.800  -0.3874   0.01275   0.00412  -0.0137  0.4553  0.0231  -2.3945   0.0000   0.2056
  -4.600  -0.3664   0.01268   0.00398  -0.0134  0.4371  0.0238  -2.2877   0.0000   0.2044
  -4.400  -0.3457   0.01267   0.00386  -0.0131  0.4080  0.0248  -2.1833   0.0000   0.2032
  -4.200  -0.3252   0.01269   0.00375  -0.0127  0.3735  0.0259  -2.0810   0.0000   0.2018
  -4.000  -0.3045   0.01270   0.00364  -0.0124  0.3419  0.0268  -1.9800   0.0000   0.2001
  -3.800  -0.2835   0.01268   0.00354  -0.0122  0.3204  0.0277  -1.8797   0.0000   0.1980
  -3.600  -0.2621   0.01263   0.00344  -0.0119  0.3088  0.0285  -1.7802   0.0000   0.1952
  -3.400  -0.2406   0.01258   0.00335  -0.0117  0.2980  0.0295  -1.6822   0.0000   0.1919
  -3.200  -0.2190   0.01253   0.00326  -0.0116  0.2887  0.0309  -1.5856   0.0000   0.1878
  -3.000  -0.1975   0.01247   0.00318  -0.0114  0.2797  0.0324  -1.4954   0.0000   0.1829
  -2.800  -0.1758   0.01242   0.00310  -0.0112  0.2716  0.0340  -1.4089   0.0000   0.1765
  -2.600  -0.1540   0.01238   0.00302  -0.0110  0.2639  0.0352  -1.3238   0.0000   0.1683
  -2.400  -0.1323   0.01234   0.00296  -0.0109  0.2563  0.0368  -1.2401   0.0000   0.1574
  -2.200  -0.1106   0.01231   0.00290  -0.0107  0.2497  0.0391  -1.1578   0.0000   0.1420
  -2.000  -0.0887   0.01227   0.00284  -0.0106  0.2444  0.0412  -1.0768   0.0000   0.1188
  -1.800  -0.0669   0.01223   0.00279  -0.0104  0.2387  0.0433  -0.9988   0.0000   0.0806
  -1.600  -0.0450   0.01221   0.00274  -0.0103  0.2330  0.0460  -0.9266   0.0000   0.0048
  -1.400  -0.0232   0.01218   0.00270  -0.0101  0.2280  0.0492  -0.8558   0.0000  -0.2137
  -1.200  -0.0012   0.01215   0.00267  -0.0100  0.2245  0.0524  -0.7861   0.0000  -8.4961
  -1.000   0.0208   0.01212   0.00264  -0.0099  0.2206  0.0564  -0.7177   0.0000   0.7408
  -0.800   0.0426   0.01210   0.00261  -0.0098  0.2163  0.0610  -0.7053   0.0000   0.4821
  -0.600   0.0646   0.01208   0.00259  -0.0097  0.2125  0.0666  -0.7329   0.0000   0.3990
  -0.400   0.0865   0.01205   0.00257  -0.0095  0.2094  0.0735  -0.7607   0.0000   0.3580
  -0.200   0.1084   0.01202   0.00255  -0.0094  0.2067  0.0825  -0.7887   0.0000   0.3335
   0.000   0.1301   0.01197   0.00253  -0.0093  0.2038  0.0981  -0.8167   0.0000   0.3172
   0.200   0.1448   0.01105   0.00233  -0.0083  0.2011  0.3203  -0.8401   0.0000   0.3025
   0.400   0.1650   0.01084   0.00231  -0.0079  0.1979  0.3790  -0.8685   0.0000   0.2930
   0.600   0.1854   0.01067   0.00231  -0.0076  0.1955  0.4302  -0.8974   0.0000   0.2857
   0.800   0.2070   0.01062   0.00232  -0.0074  0.1935  0.4556  -0.9272   0.0000   0.2803
   1.000   0.2292   0.01064   0.00235  -0.0074  0.1911  0.4639  -0.9578   0.0000   0.2763
   1.200   0.2514   0.01067   0.00238  -0.0073  0.1881  0.4726  -0.9891   0.0000   0.2730
   1.400   0.2735   0.01070   0.00241  -0.0072  0.1852  0.4816  -1.0214   0.0000   0.2702
   1.600   0.2956   0.01074   0.00245  -0.0072  0.1833  0.4908  -1.0538   0.0000   0.2678
   1.800   0.3178   0.01077   0.00249  -0.0071  0.1815  0.5003  -1.0866   0.0000   0.2657
   2.000   0.3399   0.01080   0.00254  -0.0070  0.1791  0.5101  -1.1194   0.0000   0.2639
   2.200   0.3619   0.01084   0.00259  -0.0069  0.1763  0.5202  -1.1530   0.0000   0.2622
   2.400   0.3838   0.01089   0.00265  -0.0068  0.1739  0.5304  -1.1876   0.0000   0.2607
   2.600   0.4058   0.01093   0.00270  -0.0068  0.1722  0.5411  -1.2226   0.0000   0.2594
   2.800   0.4278   0.01097   0.00277  -0.0067  0.1705  0.5520  -1.2577   0.0000   0.2582
   3.000   0.4497   0.01102   0.00284  -0.0066  0.1682  0.5628  -1.2930   0.0000   0.2571
   3.200   0.4715   0.01107   0.00291  -0.0065  0.1656  0.5742  -1.3290   0.0000   0.2560
   3.400   0.4932   0.01114   0.00299  -0.0064  0.1633  0.5858  -1.3662   0.0000   0.2550
   3.600   0.5150   0.01118   0.00307  -0.0063  0.1618  0.5976  -1.4037   0.0000   0.2541
   3.800   0.5368   0.01124   0.00315  -0.0062  0.1601  0.6097  -1.4414   0.0000   0.2532
   4.000   0.5584   0.01130   0.00325  -0.0060  0.1578  0.6220  -1.4792   0.0000   0.2524
   4.200   0.5799   0.01137   0.00334  -0.0059  0.1554  0.6344  -1.5180   0.0000   0.2516
   4.400   0.6014   0.01144   0.00345  -0.0058  0.1533  0.6472  -1.5579   0.0000   0.2508
   4.600   0.6229   0.01150   0.00355  -0.0056  0.1519  0.6603  -1.5981   0.0000   0.2501
   4.800   0.6444   0.01157   0.00365  -0.0055  0.1501  0.6737  -1.6384   0.0000   0.2494
   5.000   0.6656   0.01165   0.00377  -0.0053  0.1479  0.6872  -1.6789   0.0000   0.2487
   5.200   0.6868   0.01174   0.00390  -0.0051  0.1455  0.7010  -1.7210   0.0000   0.2480
   5.400   0.7079   0.01182   0.00402  -0.0049  0.1437  0.7150  -1.7636   0.0000   0.2473
   5.600   0.7290   0.01190   0.00415  -0.0047  0.1423  0.7293  -1.8065   0.0000   0.2466
   5.800   0.7500   0.01199   0.00429  -0.0045  0.1404  0.7437  -1.8495   0.0000   0.2459
   6.000   0.7708   0.01208   0.00443  -0.0043  0.1380  0.7582  -1.8936   0.0000   0.2453
   6.200   0.7914   0.01219   0.00458  -0.0040  0.1358  0.7729  -1.9387   0.0000   0.2446
   6.400   0.8121   0.01229   0.00473  -0.0037  0.1343  0.7877  -1.9842   0.0000   0.2439
   6.600   0.8326   0.01239   0.00489  -0.0034  0.1327  0.8025  -2.0298   0.0000   0.2432
   6.800   0.8530   0.01251   0.00505  -0.0031  0.1305  0.8173  -2.0764   0.0000   0.2425
   7.000   0.8731   0.01263   0.00523  -0.0027  0.1282  0.8321  -2.1242   0.0000   0.2418
   7.200   0.8930   0.01277   0.00541  -0.0023  0.1263  0.8467  -2.1721   0.0000   0.2410
   7.400   0.9131   0.01290   0.00559  -0.0019  0.1248  0.8609  -2.2204   0.0000   0.2403
   7.600   0.9329   0.01304   0.00578  -0.0015  0.1228  0.8748  -2.2704   0.0000   0.2396
   7.800   0.9525   0.01320   0.00598  -0.0011  0.1205  0.8882  -2.3211   0.0000   0.2388
   8.000   0.9721   0.01337   0.00619  -0.0006  0.1184  0.9009  -2.3720   0.0000   0.2381
   8.200   0.9918   0.01355   0.00640  -0.0002  0.1168  0.9129  -2.4245   0.0000   0.2374
   8.400   1.0118   0.01373   0.00662   0.0001  0.1147  0.9240  -2.4791   0.0000   0.2368
   8.600   1.0321   0.01393   0.00684   0.0003  0.1123  0.9341  -2.5345   0.0000   0.2363
   8.800   1.0528   0.01416   0.00708   0.0005  0.1101  0.9432  -2.5924   0.0000   0.2360
   9.000   1.0739   0.01439   0.00733   0.0004  0.1081  0.9512  -2.6523   0.0000   0.2357
   9.200   1.0953   0.01462   0.00758   0.0004  0.1058  0.9583  -2.7140   0.0000   0.2355
   9.400   1.1163   0.01488   0.00784   0.0003  0.1032  0.9649  -2.7775   0.0000   0.2353
   9.600   1.1372   0.01515   0.00812   0.0003  0.1009  0.9709  -2.8426   0.0000   0.2351
   9.800   1.1582   0.01542   0.00840   0.0002  0.0986  0.9763  -2.9100   0.0000   0.2348
  10.000   1.1785   0.01570   0.00869   0.0002  0.0958  0.9816  -2.9796   0.0000   0.2345
  10.200   1.1981   0.01601   0.00901   0.0003  0.0932  0.9868  -3.0509   0.0000   0.2341
  10.400   1.2178   0.01631   0.00932   0.0005  0.0905  0.9916  -3.1256   0.0000   0.2338
  10.600   1.2368   0.01664   0.00965   0.0006  0.0876  0.9964  -3.2030   0.0000   0.2333
  10.800   1.2539   0.01699   0.01000   0.0012  0.0848  1.0000  -3.2811   0.0000   0.2326
  11.000   1.2683   0.01731   0.01034   0.0023  0.0818  1.0000  -3.3575   0.0000   0.2314
  11.200   1.2814   0.01768   0.01071   0.0036  0.0788  1.0000  -3.4328   0.0000   0.2301
  11.400   1.2936   0.01805   0.01109   0.0051  0.0758  1.0000  -3.5109   0.0000   0.2286
  11.600   1.3052   0.01846   0.01150   0.0066  0.0725  1.0000  -3.5882   0.0000   0.2272
  11.800   1.3166   0.01891   0.01196   0.0080  0.0693  1.0000  -3.6687   0.0000   0.2258
  12.000   1.3278   0.01940   0.01246   0.0094  0.0658  1.0000  -3.7507   0.0000   0.2244
  12.200   1.3388   0.01993   0.01299   0.0108  0.0625  1.0000  -3.8325   0.0000   0.2232
  12.400   1.3491   0.02051   0.01358   0.0121  0.0590  1.0000  -3.9154   0.0000   0.2219
  12.600   1.3593   0.02113   0.01421   0.0134  0.0558  1.0000  -4.0012   0.0000   0.2207
  12.800   1.3688   0.02181   0.01490   0.0146  0.0525  1.0000  -4.0852   0.0000   0.2194
  13.000   1.3780   0.02252   0.01564   0.0158  0.0495  1.0000  -4.1692   0.0000   0.2183
  13.200   1.3867   0.02330   0.01644   0.0169  0.0466  1.0000  -4.2517   0.0000   0.2171
  13.400   1.3950   0.02414   0.01729   0.0180  0.0440  1.0000  -4.3372   0.0000   0.2161
  13.600   1.4024   0.02506   0.01824   0.0190  0.0414  1.0000  -4.4219   0.0000   0.2150
  13.800   1.4100   0.02602   0.01923   0.0199  0.0394  1.0000  -4.5072   0.0000   0.2140
  14.000   1.4166   0.02707   0.02032   0.0208  0.0372  1.0000  -4.5899   0.0000   0.2131
  14.200   1.4223   0.02826   0.02155   0.0215  0.0353  1.0000  -4.6694   0.0000   0.2122
  14.400   1.4282   0.02947   0.02280   0.0222  0.0336  1.0000  -4.7499   0.0000   0.2114
  14.600   1.4329   0.03084   0.02422   0.0227  0.0319  1.0000  -4.8260   0.0000   0.2106
  14.800   1.4368   0.03236   0.02578   0.0231  0.0306  1.0000  -4.9003   0.0000   0.2100
  15.000   1.4405   0.03394   0.02742   0.0233  0.0293  1.0000  -4.9780   0.0000   0.2094
  15.200   1.4432   0.03568   0.02922   0.0234  0.0281  1.0000  -5.0514   0.0000   0.2089
  15.400   1.4446   0.03764   0.03123   0.0234  0.0270  1.0000  -5.1191   0.0000   0.2084
  15.600   1.4449   0.03979   0.03345   0.0232  0.0260  1.0000  -5.1821   0.0000   0.2081
  15.800   1.4444   0.04208   0.03582   0.0229  0.0250  1.0000  -5.2415   0.0000   0.2078
  16.000   1.4425   0.04461   0.03842   0.0224  0.0241  1.0000  -5.2943   0.0000   0.2076
  16.200   1.4391   0.04740   0.04129   0.0217  0.0234  1.0000  -5.3400   0.0000   0.2075
  16.400   1.4341   0.05045   0.04443   0.0208  0.0228  1.0000  -5.3781   0.0000   0.2076
  16.800   1.4201   0.05732   0.05148   0.0186  0.0219  1.0000  -5.4323   0.0000   0.2079
  17.000   1.4108   0.06118   0.05544   0.0173  0.0215  1.0000  -5.4472   0.0000   0.2083
  17.200   1.3993   0.06540   0.05976   0.0157  0.0212  1.0000  -5.4504   0.0000   0.2087
  17.400   1.3858   0.06998   0.06445   0.0140  0.0208  1.0000  -5.4423   0.0000   0.2093
  17.600   1.3705   0.07492   0.06950   0.0121  0.0206  1.0000  -5.4233   0.0000   0.2101
  17.800   1.3533   0.08017   0.07486   0.0101  0.0203  1.0000  -5.3935   0.0000   0.2109
  18.000   1.3349   0.08568   0.08048   0.0079  0.0201  1.0000  -5.3547   0.0000   0.2120
  18.200   1.3157   0.09140   0.08631   0.0055  0.0199  1.0000  -5.3095   0.0000   0.2131
  18.400   1.2965   0.09717   0.09220   0.0031  0.0197  1.0000  -5.2611   0.0000   0.2144
  18.600   1.2777   0.10293   0.09805   0.0007  0.0195  1.0000  -5.2122   0.0000   0.2158
  18.800   1.2598   0.10865   0.10387  -0.0017  0.0193  1.0000  -5.1646   0.0000   0.2172
  19.000   1.2432   0.11424   0.10955  -0.0042  0.0191  1.0000  -5.1203   0.0000   0.2188
  19.200   1.2278   0.11963   0.11503  -0.0066  0.0188  1.0000  -5.0818   0.0000   0.2203
  19.400   1.2140   0.12485   0.12032  -0.0091  0.0185  1.0000  -5.0493   0.0000   0.2219
  19.600   1.2026   0.12974   0.12528  -0.0114  0.0182  1.0000  -5.0279   0.0000   0.2235
  19.800   1.1928   0.13440   0.13001  -0.0137  0.0178  1.0000  -5.0135   0.0000   0.2250
  20.000   1.1844   0.13887   0.13455  -0.0160  0.0174  1.0000  -5.0048   0.0000   0.2266
  20.200   1.1762   0.14331   0.13905  -0.0183  0.0171  1.0000  -4.9960   0.0000   0.2282
  20.400   1.1697   0.14748   0.14327  -0.0205  0.0167  1.0000  -4.9954   0.0000   0.2297
  20.600   1.1639   0.15159   0.14744  -0.0228  0.0163  1.0000  -4.9969   0.0000   0.2312
  20.800   1.1591   0.15556   0.15146  -0.0250  0.0161  1.0000  -5.0025   0.0000   0.2328
  21.000   1.1551   0.15942   0.15537  -0.0272  0.0158  1.0000  -5.0119   0.0000   0.2343
  21.200   1.1514   0.16324   0.15923  -0.0295  0.0155  1.0000  -5.0216   0.0000   0.2358
  21.400   1.1481   0.16703   0.16306  -0.0317  0.0151  1.0000  -5.0318   0.0000   0.2374
  21.600   1.1458   0.17063   0.16671  -0.0340  0.0148  1.0000  -5.0476   0.0000   0.2389
  21.800   1.1436   0.17422   0.17034  -0.0362  0.0145  1.0000  -5.0627   0.0000   0.2404
  22.000   1.1424   0.17763   0.17379  -0.0384  0.0141  1.0000  -5.0834   0.0000   0.2419
  22.200   1.1404   0.18122   0.17743  -0.0407  0.0137  1.0000  -5.0969   0.0000   0.2435
  22.400   1.1393   0.18466   0.18090  -0.0430  0.0132  1.0000  -5.1155   0.0000   0.2450
  22.600   1.1382   0.18812   0.18440  -0.0453  0.0128  1.0000  -5.1323   0.0000   0.2466
  22.800   1.1369   0.19167   0.18798  -0.0477  0.0124  1.0000  -5.1457   0.0000   0.2483
  23.000   1.1366   0.19502   0.19136  -0.0500  0.0121  1.0000  -5.1659   0.0000   0.2498
  23.200   1.1360   0.19846   0.19485  -0.0524  0.0118  1.0000  -5.1815   0.0000   0.2514
  23.400   1.1368   0.20159   0.19801  -0.0546  0.0116  1.0000  -5.2081   0.0000   0.2529
  23.600   1.1379   0.20465   0.20112  -0.0569  0.0114  1.0000  -5.2365   0.0000   0.2542
  23.800   1.1383   0.20792   0.20442  -0.0592  0.0112  1.0000  -5.2586   0.0000   0.2558
  24.000   1.1395   0.21098   0.20752  -0.0615  0.0109  1.0000  -5.2906   0.0000   0.2572
  24.200   1.1409   0.21402   0.21060  -0.0638  0.0107  1.0000  -5.3227   0.0000   0.2586
  24.400   1.1415   0.21728   0.21389  -0.0663  0.0105  1.0000  -5.3449   0.0000   0.2602
  24.600   1.1426   0.22040   0.21704  -0.0686  0.0102  1.0000  -5.3721   0.0000   0.2617
  24.800   1.1437   0.22352   0.22020  -0.0711  0.0099  1.0000  -5.3978   0.0000   0.2632
  25.000   1.1440   0.22688   0.22359  -0.0736  0.0096  1.0000  -5.4123   0.0000   0.2649


