xflr5 v6.47

 Calculated polar for: NACA 23015

 1 1 Reynolds number fixed          Mach number fixed         

 xtrf =   1.000 (top)        1.000 (bottom)
 Mach =   0.003     Re =     1.750 e 6     Ncrit =   7.000

  alpha     CL        CD       CDp       Cm    Top Xtr Bot Xtr   Cpmin    Chinge    XCp    
 ------- -------- --------- --------- -------- ------- ------- -------- --------- ---------
 -15.000  -1.3413   0.02257   0.01782  -0.0419  1.0000  0.0142  -10.5907   0.0000   0.1997
 -14.800  -1.3304   0.02196   0.01718  -0.0407  1.0000  0.0143  -10.4200   0.0000   0.2006
 -14.600  -1.3189   0.02140   0.01658  -0.0396  1.0000  0.0144  -10.2464   0.0000   0.2016
 -14.400  -1.3069   0.02088   0.01603  -0.0384  1.0000  0.0145  -10.0711   0.0000   0.2026
 -14.200  -1.2947   0.02040   0.01552  -0.0372  1.0000  0.0146  -9.8943   0.0000   0.2035
 -14.000  -1.2821   0.01995   0.01504  -0.0359  1.0000  0.0147  -9.7170   0.0000   0.2046
 -13.800  -1.2695   0.01953   0.01459  -0.0346  1.0000  0.0148  -9.5399   0.0000   0.2056
 -13.600  -1.2568   0.01914   0.01417  -0.0332  1.0000  0.0149  -9.3640   0.0000   0.2068
 -13.400  -1.2445   0.01876   0.01377  -0.0317  1.0000  0.0149  -9.1907   0.0000   0.2080
 -13.200  -1.2324   0.01841   0.01338  -0.0301  1.0000  0.0150  -9.0203   0.0000   0.2094
 -13.000  -1.2223   0.01793   0.01287  -0.0281  1.0000  0.0152  -8.8665   0.0000   0.2111
 -12.800  -1.2113   0.01742   0.01232  -0.0264  1.0000  0.0154  -8.7106   0.0000   0.2126
 -12.600  -1.1993   0.01700   0.01187  -0.0247  1.0000  0.0157  -8.5478   0.0000   0.2141
 -12.400  -1.1872   0.01664   0.01150  -0.0229  1.0000  0.0159  -8.3835   0.0000   0.2156
 -12.200  -1.1752   0.01632   0.01117  -0.0211  1.0000  0.0161  -8.2253   0.0000   0.2172
 -12.000  -1.1633   0.01604   0.01086  -0.0192  1.0000  0.0163  -8.0722   0.0000   0.2190
 -11.800  -1.1518   0.01577   0.01058  -0.0172  1.0000  0.0165  -7.9217   0.0000   0.2208
 -11.600  -1.1368   0.01548   0.01029  -0.0159  0.9997  0.0167  -7.7561   0.0000   0.2220
 -11.400  -1.1127   0.01515   0.00995  -0.0165  0.9988  0.0170  -7.5522   0.0000   0.2214
 -11.200  -1.0884   0.01483   0.00962  -0.0172  0.9979  0.0172  -7.3491   0.0000   0.2207
 -11.000  -1.0640   0.01452   0.00930  -0.0178  0.9969  0.0175  -7.1486   0.0000   0.2200
 -10.800  -1.0398   0.01422   0.00899  -0.0183  0.9956  0.0177  -6.9508   0.0000   0.2193
 -10.600  -1.0151   0.01393   0.00868  -0.0190  0.9944  0.0179  -6.7530   0.0000   0.2184
 -10.400  -0.9898   0.01365   0.00839  -0.0198  0.9934  0.0181  -6.5553   0.0000   0.2173
 -10.200  -0.9649   0.01338   0.00811  -0.0204  0.9921  0.0183  -6.3613   0.0000   0.2163
 -10.000  -0.9409   0.01313   0.00785  -0.0209  0.9899  0.0184  -6.1723   0.0000   0.2155
  -9.800  -0.9172   0.01278   0.00748  -0.0213  0.9878  0.0188  -5.9921   0.0000   0.2146
  -9.600  -0.8951   0.01245   0.00715  -0.0214  0.9843  0.0193  -5.8196   0.0000   0.2142
  -9.400  -0.8723   0.01218   0.00688  -0.0216  0.9809  0.0198  -5.6429   0.0000   0.2135
  -9.200  -0.8509   0.01195   0.00665  -0.0214  0.9760  0.0202  -5.4726   0.0000   0.2133
  -9.000  -0.8292   0.01174   0.00644  -0.0213  0.9713  0.0207  -5.3028   0.0000   0.2129
  -8.800  -0.8086   0.01154   0.00623  -0.0209  0.9652  0.0211  -5.1392   0.0000   0.2129
  -8.600  -0.7884   0.01136   0.00603  -0.0204  0.9584  0.0214  -4.9794   0.0000   0.2130
  -8.400  -0.7682   0.01117   0.00583  -0.0199  0.9513  0.0218  -4.8222   0.0000   0.2132
  -8.200  -0.7480   0.01101   0.00563  -0.0194  0.9435  0.0220  -4.6668   0.0000   0.2134
  -8.000  -0.7278   0.01085   0.00545  -0.0189  0.9351  0.0222  -4.5127   0.0000   0.2135
  -7.800  -0.7080   0.01063   0.00520  -0.0183  0.9257  0.0228  -4.3657   0.0000   0.2138
  -7.600  -0.6879   0.01043   0.00498  -0.0177  0.9158  0.0235  -4.2175   0.0000   0.2139
  -7.400  -0.6674   0.01027   0.00480  -0.0173  0.9054  0.0241  -4.0785   0.0000   0.2139
  -7.200  -0.6466   0.01013   0.00463  -0.0169  0.8943  0.0247  -3.9404   0.0000   0.2139
  -7.000  -0.6257   0.01000   0.00446  -0.0165  0.8826  0.0253  -3.8036   0.0000   0.2137
  -6.800  -0.6046   0.00988   0.00430  -0.0162  0.8701  0.0258  -3.6681   0.0000   0.2135
  -6.600  -0.5834   0.00978   0.00415  -0.0158  0.8570  0.0262  -3.5339   0.0000   0.2132
  -6.400  -0.5623   0.00966   0.00399  -0.0155  0.8431  0.0268  -3.4028   0.0000   0.2129
  -6.200  -0.5414   0.00952   0.00382  -0.0151  0.8286  0.0279  -3.2740   0.0000   0.2126
  -6.000  -0.5201   0.00942   0.00368  -0.0148  0.8135  0.0288  -3.1447   0.0000   0.2122
  -5.800  -0.4987   0.00934   0.00355  -0.0145  0.7970  0.0297  -3.0169   0.0000   0.2116
  -5.600  -0.4773   0.00928   0.00342  -0.0142  0.7758  0.0304  -2.8915   0.0000   0.2110
  -5.400  -0.4561   0.00924   0.00330  -0.0139  0.7504  0.0310  -2.7683   0.0000   0.2103
  -5.200  -0.4351   0.00917   0.00315  -0.0136  0.7251  0.0324  -2.6487   0.0000   0.2097
  -5.000  -0.4136   0.00911   0.00304  -0.0133  0.7047  0.0336  -2.5285   0.0000   0.2088
  -4.800  -0.3918   0.00906   0.00293  -0.0131  0.6882  0.0347  -2.4109   0.0000   0.2075
  -4.600  -0.3699   0.00901   0.00283  -0.0130  0.6718  0.0356  -2.3018   0.0000   0.2059
  -4.400  -0.3481   0.00894   0.00272  -0.0128  0.6553  0.0374  -2.1955   0.0000   0.2043
  -4.200  -0.3262   0.00888   0.00263  -0.0126  0.6396  0.0392  -2.0895   0.0000   0.2023
  -4.000  -0.3041   0.00884   0.00255  -0.0125  0.6234  0.0406  -1.9850   0.0000   0.1998
  -3.800  -0.2822   0.00879   0.00246  -0.0123  0.6067  0.0427  -1.8831   0.0000   0.1971
  -3.600  -0.2601   0.00875   0.00238  -0.0122  0.5907  0.0448  -1.7821   0.0000   0.1939
  -3.400  -0.2380   0.00871   0.00230  -0.0121  0.5756  0.0468  -1.6826   0.0000   0.1898
  -3.200  -0.2160   0.00867   0.00223  -0.0120  0.5597  0.0497  -1.5852   0.0000   0.1851
  -3.000  -0.1938   0.00865   0.00216  -0.0119  0.5434  0.0526  -1.4913   0.0000   0.1792
  -2.800  -0.1718   0.00862   0.00210  -0.0117  0.5279  0.0566  -1.4043   0.0000   0.1717
  -2.600  -0.1496   0.00858   0.00204  -0.0116  0.5134  0.0605  -1.3187   0.0000   0.1619
  -2.400  -0.1274   0.00856   0.00199  -0.0116  0.4983  0.0651  -1.2344   0.0000   0.1486
  -2.200  -0.1053   0.00854   0.00194  -0.0114  0.4827  0.0709  -1.1517   0.0000   0.1298
  -2.000  -0.0833   0.00850   0.00189  -0.0113  0.4672  0.0791  -1.0707   0.0000   0.1013
  -1.800  -0.0613   0.00846   0.00184  -0.0112  0.4529  0.0905  -0.9915   0.0000   0.0526
  -1.600  -0.0395   0.00840   0.00179  -0.0111  0.4389  0.1072  -0.9201   0.0000  -0.0488
  -1.400  -0.0187   0.00822   0.00171  -0.0108  0.4244  0.1492  -0.8520   0.0000  -0.3565
  -1.200  -0.0030   0.00749   0.00150  -0.0098  0.4109  0.3129  -0.7943   0.0000  -3.1942
  -1.000   0.0173   0.00729   0.00145  -0.0095  0.3967  0.3708  -0.7288   0.0000   0.8151
  -0.800   0.0385   0.00719   0.00142  -0.0093  0.3835  0.4091  -0.7025   0.0000   0.4942
  -0.600   0.0597   0.00709   0.00141  -0.0090  0.3705  0.4465  -0.7295   0.0000   0.4011
  -0.400   0.0812   0.00703   0.00140  -0.0089  0.3570  0.4790  -0.7569   0.0000   0.3569
  -0.200   0.1028   0.00700   0.00140  -0.0087  0.3435  0.5067  -0.7846   0.0000   0.3313
   0.000   0.1245   0.00698   0.00141  -0.0086  0.3306  0.5339  -0.8125   0.0000   0.3146
   0.200   0.1464   0.00696   0.00142  -0.0084  0.3192  0.5587  -0.8419   0.0000   0.3030
   0.400   0.1682   0.00695   0.00144  -0.0083  0.3082  0.5838  -0.8715   0.0000   0.2943
   0.600   0.1900   0.00695   0.00146  -0.0082  0.2970  0.6074  -0.9013   0.0000   0.2876
   0.800   0.2119   0.00695   0.00149  -0.0080  0.2865  0.6312  -0.9314   0.0000   0.2823
   1.000   0.2337   0.00694   0.00152  -0.0079  0.2773  0.6562  -0.9616   0.0000   0.2779
   1.200   0.2554   0.00692   0.00155  -0.0077  0.2695  0.6852  -0.9931   0.0000   0.2741
   1.400   0.2770   0.00692   0.00159  -0.0075  0.2616  0.7106  -1.0249   0.0000   0.2708
   1.600   0.2994   0.00695   0.00163  -0.0075  0.2549  0.7253  -1.0575   0.0000   0.2685
   1.800   0.3216   0.00700   0.00167  -0.0074  0.2481  0.7383  -1.0903   0.0000   0.2664
   2.000   0.3440   0.00703   0.00172  -0.0074  0.2422  0.7511  -1.1233   0.0000   0.2646
   2.200   0.3663   0.00708   0.00177  -0.0073  0.2370  0.7641  -1.1578   0.0000   0.2630
   2.400   0.3888   0.00711   0.00181  -0.0073  0.2327  0.7769  -1.1929   0.0000   0.2616
   2.600   0.4110   0.00716   0.00187  -0.0072  0.2277  0.7898  -1.2279   0.0000   0.2602
   2.800   0.4334   0.00720   0.00193  -0.0071  0.2239  0.8024  -1.2634   0.0000   0.2591
   3.000   0.4557   0.00724   0.00199  -0.0071  0.2199  0.8149  -1.2991   0.0000   0.2580
   3.200   0.4779   0.00730   0.00205  -0.0070  0.2161  0.8272  -1.3362   0.0000   0.2569
   3.400   0.5002   0.00734   0.00211  -0.0069  0.2134  0.8392  -1.3740   0.0000   0.2560
   3.600   0.5224   0.00739   0.00218  -0.0069  0.2102  0.8508  -1.4119   0.0000   0.2551
   3.800   0.5444   0.00745   0.00225  -0.0067  0.2067  0.8619  -1.4498   0.0000   0.2542
   4.000   0.5665   0.00751   0.00233  -0.0066  0.2038  0.8725  -1.4882   0.0000   0.2534
   4.200   0.5887   0.00756   0.00240  -0.0066  0.2016  0.8827  -1.5286   0.0000   0.2526
   4.400   0.6108   0.00763   0.00248  -0.0065  0.1988  0.8926  -1.5691   0.0000   0.2519
   4.800   0.6545   0.00779   0.00266  -0.0062  0.1932  0.9111  -1.6505   0.0000   0.2504
   5.000   0.6765   0.00785   0.00274  -0.0061  0.1911  0.9194  -1.6925   0.0000   0.2497
   5.200   0.6983   0.00793   0.00282  -0.0059  0.1888  0.9273  -1.7357   0.0000   0.2490
   5.400   0.7199   0.00803   0.00292  -0.0057  0.1861  0.9351  -1.7789   0.0000   0.2484
   5.600   0.7412   0.00813   0.00302  -0.0055  0.1833  0.9421  -1.8221   0.0000   0.2476
   5.800   0.7629   0.00821   0.00311  -0.0053  0.1815  0.9485  -1.8662   0.0000   0.2470
   6.200   0.8060   0.00841   0.00331  -0.0050  0.1770  0.9605  -1.9586   0.0000   0.2457
   6.400   0.8274   0.00853   0.00342  -0.0048  0.1742  0.9658  -2.0050   0.0000   0.2452
   6.600   0.8494   0.00864   0.00353  -0.0047  0.1723  0.9709  -2.0525   0.0000   0.2447
   6.800   0.8722   0.00874   0.00364  -0.0048  0.1704  0.9748  -2.1035   0.0000   0.2445
   7.000   0.8945   0.00885   0.00375  -0.0049  0.1681  0.9791  -2.1542   0.0000   0.2442
   7.200   0.9182   0.00900   0.00387  -0.0053  0.1654  0.9820  -2.2069   0.0000   0.2442
   7.400   0.9421   0.00914   0.00401  -0.0057  0.1630  0.9848  -2.2614   0.0000   0.2443
   7.600   0.9661   0.00925   0.00412  -0.0061  0.1613  0.9876  -2.3178   0.0000   0.2444
   7.800   0.9919   0.00939   0.00425  -0.0070  0.1590  0.9890  -2.3768   0.0000   0.2448
   8.000   1.0174   0.00954   0.00439  -0.0078  0.1564  0.9905  -2.4373   0.0000   0.2452
   8.200   1.0426   0.00972   0.00455  -0.0086  0.1536  0.9920  -2.4990   0.0000   0.2455
   8.400   1.0684   0.00985   0.00468  -0.0095  0.1519  0.9932  -2.5622   0.0000   0.2459
   8.600   1.0947   0.00999   0.00482  -0.0105  0.1496  0.9939  -2.6296   0.0000   0.2464
   8.800   1.1206   0.01016   0.00498  -0.0114  0.1470  0.9948  -2.6969   0.0000   0.2467
   9.000   1.1459   0.01036   0.00516  -0.0123  0.1441  0.9958  -2.7663   0.0000   0.2470
   9.200   1.1714   0.01049   0.00531  -0.0132  0.1423  0.9969  -2.8375   0.0000   0.2472
   9.400   1.1968   0.01066   0.00547  -0.0140  0.1398  0.9977  -2.9125   0.0000   0.2474
   9.600   1.2221   0.01085   0.00565  -0.0149  0.1370  0.9985  -2.9900   0.0000   0.2476
   9.800   1.2473   0.01105   0.00583  -0.0158  0.1343  0.9992  -3.0708   0.0000   0.2477
  10.000   1.2726   0.01121   0.00600  -0.0166  0.1320  0.9999  -3.1566   0.0000   0.2479
  10.200   1.2885   0.01138   0.00616  -0.0155  0.1296  1.0000  -3.2288   0.0000   0.2465
  10.400   1.3030   0.01157   0.00634  -0.0141  0.1268  1.0000  -3.3025   0.0000   0.2450
  10.600   1.3186   0.01173   0.00651  -0.0129  0.1248  1.0000  -3.3821   0.0000   0.2437
  10.800   1.3343   0.01189   0.00667  -0.0117  0.1224  1.0000  -3.4648   0.0000   0.2424
  11.000   1.3496   0.01209   0.00687  -0.0105  0.1196  1.0000  -3.5513   0.0000   0.2411
  11.200   1.3650   0.01231   0.00707  -0.0094  0.1169  1.0000  -3.6390   0.0000   0.2398
  11.400   1.3814   0.01248   0.00726  -0.0084  0.1147  1.0000  -3.7353   0.0000   0.2387
  11.600   1.3975   0.01271   0.00748  -0.0074  0.1118  1.0000  -3.8315   0.0000   0.2376
  11.800   1.4133   0.01297   0.00773  -0.0064  0.1088  1.0000  -3.9295   0.0000   0.2365
  12.000   1.4305   0.01318   0.00794  -0.0057  0.1065  1.0000  -4.0366   0.0000   0.2356
  12.200   1.4469   0.01344   0.00820  -0.0048  0.1035  1.0000  -4.1424   0.0000   0.2346
  12.400   1.4627   0.01374   0.00849  -0.0039  0.1005  1.0000  -4.2475   0.0000   0.2336
  12.600   1.4794   0.01398   0.00874  -0.0032  0.0981  1.0000  -4.3592   0.0000   0.2328
  12.800   1.4948   0.01430   0.00905  -0.0023  0.0949  1.0000  -4.4716   0.0000   0.2317
  13.000   1.5095   0.01461   0.00936  -0.0012  0.0919  1.0000  -4.5831   0.0000   0.2307
  13.200   1.5233   0.01491   0.00966   0.0000  0.0891  1.0000  -4.6932   0.0000   0.2295
  13.400   1.5354   0.01529   0.01004   0.0015  0.0861  1.0000  -4.7984   0.0000   0.2282
  13.600   1.5487   0.01563   0.01038   0.0027  0.0836  1.0000  -4.9086   0.0000   0.2270
  13.800   1.5610   0.01604   0.01079   0.0040  0.0804  1.0000  -5.0202   0.0000   0.2258
  14.000   1.5727   0.01649   0.01124   0.0053  0.0773  1.0000  -5.1333   0.0000   0.2246
  14.200   1.5850   0.01693   0.01169   0.0065  0.0743  1.0000  -5.2494   0.0000   0.2235
  14.600   1.6075   0.01796   0.01273   0.0089  0.0689  1.0000  -5.4769   0.0000   0.2213
  14.800   1.6175   0.01856   0.01333   0.0102  0.0660  1.0000  -5.5872   0.0000   0.2202
  15.000   1.6274   0.01919   0.01397   0.0114  0.0633  1.0000  -5.6978   0.0000   0.2191
  15.200   1.6367   0.01988   0.01466   0.0126  0.0603  1.0000  -5.8066   0.0000   0.2180
  15.400   1.6446   0.02068   0.01547   0.0138  0.0575  1.0000  -5.9107   0.0000   0.2168
  15.600   1.6533   0.02144   0.01625   0.0148  0.0550  1.0000  -6.0209   0.0000   0.2158
  15.800   1.6596   0.02241   0.01722   0.0160  0.0524  1.0000  -6.1261   0.0000   0.2147
  16.000   1.6677   0.02327   0.01811   0.0169  0.0505  1.0000  -6.2397   0.0000   0.2138
  16.200   1.6742   0.02430   0.01915   0.0178  0.0483  1.0000  -6.3466   0.0000   0.2128
  16.400   1.6786   0.02552   0.02040   0.0187  0.0462  1.0000  -6.4452   0.0000   0.2119
  16.600   1.6852   0.02662   0.02153   0.0193  0.0446  1.0000  -6.5532   0.0000   0.2111
  16.800   1.6894   0.02795   0.02289   0.0200  0.0428  1.0000  -6.6515   0.0000   0.2102
  17.000   1.6912   0.02955   0.02452   0.0206  0.0409  1.0000  -6.7387   0.0000   0.2094
  17.200   1.6953   0.03101   0.02602   0.0209  0.0396  1.0000  -6.8363   0.0000   0.2087
  17.400   1.6970   0.03273   0.02778   0.0212  0.0380  1.0000  -6.9233   0.0000   0.2081
  17.600   1.6959   0.03480   0.02989   0.0214  0.0365  1.0000  -6.9966   0.0000   0.2074
  17.800   1.6956   0.03687   0.03201   0.0214  0.0352  1.0000  -7.0731   0.0000   0.2069
  18.000   1.6951   0.03901   0.03420   0.0213  0.0341  1.0000  -7.1487   0.0000   0.2064
  18.200   1.6920   0.04149   0.03674   0.0210  0.0331  1.0000  -7.2113   0.0000   0.2060
  18.400   1.6866   0.04432   0.03962   0.0205  0.0321  1.0000  -7.2619   0.0000   0.2057
  18.600   1.6795   0.04744   0.04281   0.0199  0.0311  1.0000  -7.3027   0.0000   0.2055
  18.800   1.6734   0.05051   0.04595   0.0191  0.0305  1.0000  -7.3475   0.0000   0.2053
  19.000   1.6658   0.05383   0.04934   0.0182  0.0299  1.0000  -7.3839   0.0000   0.2053
  19.200   1.6558   0.05752   0.05312   0.0171  0.0293  1.0000  -7.4068   0.0000   0.2053
  19.400   1.6430   0.06165   0.05733   0.0158  0.0288  1.0000  -7.4133   0.0000   0.2054
  19.600   1.6271   0.06624   0.06201   0.0142  0.0283  1.0000  -7.4046   0.0000   0.2057
  19.800   1.6087   0.07127   0.06713   0.0124  0.0279  1.0000  -7.3794   0.0000   0.2061
  20.000   1.5877   0.07673   0.07270   0.0104  0.0276  1.0000  -7.3370   0.0000   0.2066
  20.200   1.5642   0.08260   0.07867   0.0082  0.0273  1.0000  -7.2775   0.0000   0.2074
  20.400   1.5391   0.08883   0.08500   0.0058  0.0271  1.0000  -7.2050   0.0000   0.2083
  20.600   1.5127   0.09532   0.09161   0.0032  0.0268  1.0000  -7.1211   0.0000   0.2093
  20.800   1.4859   0.10193   0.09833   0.0004  0.0266  1.0000  -7.0310   0.0000   0.2106
  21.200   1.4351   0.11513   0.11174  -0.0054  0.0263  1.0000  -6.8536   0.0000   0.2135
  21.400   1.4131   0.12127   0.11797  -0.0083  0.0261  1.0000  -6.7800   0.0000   0.2150
  21.600   1.3935   0.12715   0.12394  -0.0111  0.0259  1.0000  -6.7175   0.0000   0.2166
  21.800   1.3757   0.13286   0.12972  -0.0140  0.0256  1.0000  -6.6615   0.0000   0.2182
  22.000   1.3593   0.13839   0.13533  -0.0169  0.0252  1.0000  -6.6116   0.0000   0.2199
  22.200   1.3440   0.14378   0.14078  -0.0198  0.0248  1.0000  -6.5646   0.0000   0.2217
  22.400   1.3302   0.14898   0.14604  -0.0227  0.0244  1.0000  -6.5248   0.0000   0.2235
  22.600   1.3191   0.15381   0.15092  -0.0255  0.0239  1.0000  -6.5000   0.0000   0.2252
  22.800   1.3075   0.15880   0.15596  -0.0285  0.0233  1.0000  -6.4675   0.0000   0.2271
  23.000   1.2963   0.16380   0.16101  -0.0315  0.0227  1.0000  -6.4341   0.0000   0.2292
  23.200   1.2899   0.16795   0.16520  -0.0342  0.0222  1.0000  -6.4337   0.0000   0.2308
  23.400   1.2839   0.17205   0.16935  -0.0368  0.0219  1.0000  -6.4342   0.0000   0.2324
  23.600   1.2807   0.17559   0.17293  -0.0392  0.0214  1.0000  -6.4554   0.0000   0.2337
  23.800   1.2746   0.17974   0.17712  -0.0419  0.0210  1.0000  -6.4507   0.0000   0.2355
  24.000   1.2712   0.18340   0.18081  -0.0445  0.0205  1.0000  -6.4660   0.0000   0.2370
  24.200   1.2653   0.18762   0.18506  -0.0474  0.0199  1.0000  -6.4572   0.0000   0.2389
  24.400   1.2613   0.19148   0.18895  -0.0501  0.0193  1.0000  -6.4629   0.0000   0.2407
  24.600   1.2556   0.19576   0.19326  -0.0532  0.0187  1.0000  -6.4496   0.0000   0.2427
  24.800   1.2543   0.19913   0.19666  -0.0557  0.0183  1.0000  -6.4740   0.0000   0.2442
  25.000   1.2548   0.20212   0.19968  -0.0579  0.0180  1.0000  -6.5140   0.0000   0.2454


