xflr5 v6.47

 Calculated polar for: NACA 23015

 1 1 Reynolds number fixed          Mach number fixed         

 xtrf =   1.000 (top)        1.000 (bottom)
 Mach =   0.003     Re =     2.500 e 6     Ncrit =   7.000

  alpha     CL        CD       CDp       Cm    Top Xtr Bot Xtr   Cpmin    Chinge    XCp    
 ------- -------- --------- --------- -------- ------- ------- -------- --------- ---------
 -15.000  -1.3887   0.01947   0.01476  -0.0368  1.0000  0.0131  -10.9473   0.0000   0.2045
 -14.800  -1.3767   0.01899   0.01426  -0.0355  1.0000  0.0132  -10.7653   0.0000   0.2056
 -14.600  -1.3643   0.01855   0.01379  -0.0342  1.0000  0.0133  -10.5819   0.0000   0.2066
 -14.400  -1.3518   0.01813   0.01336  -0.0328  1.0000  0.0135  -10.3986   0.0000   0.2077
 -14.200  -1.3393   0.01775   0.01295  -0.0314  1.0000  0.0136  -10.2163   0.0000   0.2089
 -14.000  -1.3269   0.01739   0.01258  -0.0298  1.0000  0.0137  -10.0352   0.0000   0.2102
 -13.800  -1.3143   0.01706   0.01223  -0.0283  1.0000  0.0139  -9.8537   0.0000   0.2114
 -13.600  -1.3001   0.01673   0.01189  -0.0270  1.0000  0.0141  -9.6655   0.0000   0.2125
 -13.400  -1.2852   0.01643   0.01157  -0.0258  1.0000  0.0142  -9.4745   0.0000   0.2135
 -13.200  -1.2704   0.01613   0.01126  -0.0245  1.0000  0.0143  -9.2853   0.0000   0.2145
 -13.000  -1.2559   0.01585   0.01096  -0.0232  1.0000  0.0145  -9.1000   0.0000   0.2157
 -12.800  -1.2423   0.01558   0.01068  -0.0216  1.0000  0.0146  -8.9203   0.0000   0.2170
 -12.600  -1.2292   0.01533   0.01041  -0.0199  1.0000  0.0147  -8.7445   0.0000   0.2185
 -12.400  -1.2167   0.01509   0.01016  -0.0181  1.0000  0.0148  -8.5730   0.0000   0.2201
 -12.200  -1.1995   0.01482   0.00988  -0.0172  0.9997  0.0148  -8.3869   0.0000   0.2209
 -12.000  -1.1758   0.01453   0.00957  -0.0177  0.9989  0.0149  -8.1762   0.0000   0.2204
 -11.800  -1.1518   0.01425   0.00928  -0.0183  0.9981  0.0150  -7.9660   0.0000   0.2199
 -11.600  -1.1280   0.01392   0.00894  -0.0188  0.9973  0.0151  -7.7624   0.0000   0.2193
 -11.400  -1.1054   0.01353   0.00854  -0.0191  0.9960  0.0155  -7.5695   0.0000   0.2190
 -11.200  -1.0817   0.01320   0.00819  -0.0195  0.9948  0.0159  -7.3715   0.0000   0.2184
 -11.000  -1.0575   0.01289   0.00789  -0.0201  0.9938  0.0162  -7.1707   0.0000   0.2176
 -10.800  -1.0337   0.01262   0.00762  -0.0206  0.9923  0.0165  -6.9731   0.0000   0.2170
 -10.600  -1.0110   0.01237   0.00736  -0.0207  0.9895  0.0168  -6.7822   0.0000   0.2166
 -10.400  -0.9875   0.01212   0.00712  -0.0211  0.9873  0.0171  -6.5895   0.0000   0.2160
 -10.200  -0.9661   0.01189   0.00689  -0.0209  0.9831  0.0174  -6.4078   0.0000   0.2159
 -10.000  -0.9441   0.01168   0.00666  -0.0209  0.9794  0.0176  -6.2257   0.0000   0.2156
  -9.800  -0.9235   0.01148   0.00646  -0.0205  0.9740  0.0179  -6.0512   0.0000   0.2157
  -9.600  -0.9032   0.01129   0.00625  -0.0201  0.9682  0.0181  -5.8799   0.0000   0.2159
  -9.400  -0.8831   0.01111   0.00606  -0.0196  0.9620  0.0182  -5.7112   0.0000   0.2161
  -9.000  -0.8431   0.01078   0.00569  -0.0185  0.9472  0.0185  -5.3795   0.0000   0.2167
  -8.800  -0.8235   0.01055   0.00543  -0.0179  0.9389  0.0191  -5.2222   0.0000   0.2171
  -8.600  -0.8035   0.01036   0.00523  -0.0174  0.9303  0.0197  -5.0623   0.0000   0.2174
  -8.400  -0.7831   0.01020   0.00505  -0.0169  0.9210  0.0202  -4.9020   0.0000   0.2176
  -8.200  -0.7625   0.01005   0.00488  -0.0165  0.9111  0.0207  -4.7427   0.0000   0.2178
  -8.000  -0.7417   0.00991   0.00471  -0.0161  0.9005  0.0211  -4.5851   0.0000   0.2178
  -7.800  -0.7207   0.00978   0.00455  -0.0157  0.8893  0.0215  -4.4290   0.0000   0.2178
  -7.600  -0.6995   0.00966   0.00439  -0.0154  0.8774  0.0218  -4.2741   0.0000   0.2178
  -7.400  -0.6782   0.00956   0.00424  -0.0151  0.8649  0.0221  -4.1302   0.0000   0.2177
  -7.200  -0.6567   0.00946   0.00410  -0.0149  0.8517  0.0223  -3.9883   0.0000   0.2175
  -7.000  -0.6358   0.00931   0.00391  -0.0145  0.8379  0.0232  -3.8526   0.0000   0.2174
  -6.800  -0.6144   0.00919   0.00377  -0.0142  0.8234  0.0239  -3.7155   0.0000   0.2172
  -6.600  -0.5930   0.00909   0.00363  -0.0140  0.8082  0.0246  -3.5792   0.0000   0.2169
  -6.400  -0.5714   0.00900   0.00350  -0.0137  0.7923  0.0252  -3.4444   0.0000   0.2165
  -6.200  -0.5497   0.00893   0.00338  -0.0135  0.7754  0.0258  -3.3113   0.0000   0.2161
  -6.000  -0.5281   0.00888   0.00326  -0.0133  0.7551  0.0262  -3.1798   0.0000   0.2156
  -5.800  -0.5067   0.00884   0.00314  -0.0130  0.7289  0.0270  -3.0518   0.0000   0.2151
  -5.600  -0.4854   0.00879   0.00302  -0.0127  0.7014  0.0282  -2.9259   0.0000   0.2147
  -5.400  -0.4637   0.00874   0.00291  -0.0125  0.6791  0.0292  -2.8002   0.0000   0.2139
  -5.200  -0.4417   0.00868   0.00281  -0.0124  0.6624  0.0300  -2.6756   0.0000   0.2130
  -5.000  -0.4196   0.00864   0.00272  -0.0123  0.6462  0.0307  -2.5526   0.0000   0.2118
  -4.800  -0.3976   0.00858   0.00262  -0.0121  0.6302  0.0318  -2.4335   0.0000   0.2106
  -4.600  -0.3755   0.00852   0.00253  -0.0120  0.6151  0.0332  -2.3236   0.0000   0.2091
  -4.400  -0.3533   0.00847   0.00244  -0.0119  0.5997  0.0345  -2.2148   0.0000   0.2074
  -4.200  -0.3310   0.00844   0.00236  -0.0118  0.5837  0.0355  -2.1074   0.0000   0.2054
  -4.000  -0.3089   0.00839   0.00228  -0.0117  0.5685  0.0374  -2.0023   0.0000   0.2032
  -3.800  -0.2866   0.00834   0.00221  -0.0116  0.5542  0.0393  -1.8984   0.0000   0.2005
  -3.600  -0.2642   0.00832   0.00214  -0.0115  0.5389  0.0407  -1.7960   0.0000   0.1972
  -3.400  -0.2420   0.00828   0.00207  -0.0115  0.5232  0.0430  -1.6960   0.0000   0.1935
  -3.200  -0.2197   0.00825   0.00201  -0.0114  0.5081  0.0452  -1.5973   0.0000   0.1889
  -3.000  -0.1973   0.00823   0.00196  -0.0113  0.4944  0.0475  -1.5016   0.0000   0.1831
  -2.800  -0.1749   0.00820   0.00190  -0.0113  0.4799  0.0507  -1.4137   0.0000   0.1759
  -2.600  -0.1526   0.00818   0.00185  -0.0112  0.4646  0.0542  -1.3272   0.0000   0.1666
  -2.400  -0.1303   0.00817   0.00181  -0.0111  0.4495  0.0579  -1.2422   0.0000   0.1541
  -2.200  -0.1079   0.00815   0.00177  -0.0111  0.4359  0.0626  -1.1588   0.0000   0.1363
  -2.000  -0.0855   0.00813   0.00173  -0.0110  0.4225  0.0678  -1.0768   0.0000   0.1090
  -1.800  -0.0633   0.00811   0.00169  -0.0109  0.4082  0.0748  -0.9965   0.0000   0.0630
  -1.600  -0.0411   0.00809   0.00166  -0.0109  0.3935  0.0845  -0.9236   0.0000  -0.0323
  -1.400  -0.0190   0.00806   0.00163  -0.0108  0.3797  0.0977  -0.8528   0.0000  -0.3472
  -1.200   0.0029   0.00799   0.00159  -0.0106  0.3674  0.1200  -0.7837   0.0000   4.1181
  -1.000   0.0199   0.00736   0.00141  -0.0098  0.3561  0.2679  -0.7250   0.0000   0.7583
  -0.800   0.0401   0.00713   0.00135  -0.0095  0.3436  0.3335  -0.7038   0.0000   0.4898
  -0.400   0.0828   0.00693   0.00131  -0.0091  0.3188  0.4119  -0.7582   0.0000   0.3579
  -0.200   0.1044   0.00687   0.00131  -0.0090  0.3080  0.4446  -0.7859   0.0000   0.3326
   0.000   0.1263   0.00683   0.00131  -0.0089  0.2973  0.4724  -0.8140   0.0000   0.3161
   0.200   0.1483   0.00679   0.00132  -0.0088  0.2872  0.5002  -0.8436   0.0000   0.3046
   0.400   0.1704   0.00677   0.00133  -0.0087  0.2776  0.5251  -0.8734   0.0000   0.2960
   0.600   0.1924   0.00674   0.00135  -0.0086  0.2689  0.5499  -0.9035   0.0000   0.2894
   0.800   0.2146   0.00674   0.00137  -0.0085  0.2609  0.5733  -0.9337   0.0000   0.2842
   1.000   0.2369   0.00671   0.00139  -0.0085  0.2545  0.5976  -0.9643   0.0000   0.2800
   1.200   0.2589   0.00670   0.00142  -0.0084  0.2477  0.6225  -0.9963   0.0000   0.2764
   1.400   0.2809   0.00667   0.00145  -0.0083  0.2414  0.6521  -1.0285   0.0000   0.2733
   1.600   0.3029   0.00665   0.00148  -0.0082  0.2360  0.6790  -1.0609   0.0000   0.2706
   1.800   0.3256   0.00667   0.00152  -0.0082  0.2314  0.6937  -1.0940   0.0000   0.2686
   2.000   0.3481   0.00671   0.00156  -0.0082  0.2264  0.7061  -1.1273   0.0000   0.2668
   2.200   0.3709   0.00673   0.00160  -0.0082  0.2229  0.7189  -1.1624   0.0000   0.2653
   2.400   0.3935   0.00676   0.00164  -0.0082  0.2186  0.7316  -1.1976   0.0000   0.2639
   2.600   0.4161   0.00680   0.00169  -0.0082  0.2147  0.7447  -1.2331   0.0000   0.2626
   2.800   0.4388   0.00682   0.00173  -0.0083  0.2121  0.7576  -1.2689   0.0000   0.2615
   3.000   0.4613   0.00685   0.00178  -0.0083  0.2089  0.7705  -1.3049   0.0000   0.2604
   3.200   0.4837   0.00690   0.00184  -0.0082  0.2050  0.7832  -1.3424   0.0000   0.2594
   3.400   0.5063   0.00692   0.00189  -0.0082  0.2027  0.7958  -1.3805   0.0000   0.2585
   3.600   0.5289   0.00696   0.00195  -0.0082  0.2001  0.8082  -1.4189   0.0000   0.2576
   3.800   0.5513   0.00700   0.00201  -0.0082  0.1973  0.8204  -1.4573   0.0000   0.2568
   4.000   0.5735   0.00706   0.00208  -0.0082  0.1940  0.8323  -1.4960   0.0000   0.2560
   4.200   0.5961   0.00710   0.00214  -0.0082  0.1922  0.8438  -1.5369   0.0000   0.2553
   4.400   0.6185   0.00714   0.00221  -0.0082  0.1898  0.8551  -1.5779   0.0000   0.2546
   4.600   0.6408   0.00720   0.00228  -0.0081  0.1872  0.8661  -1.6190   0.0000   0.2539
   4.800   0.6629   0.00727   0.00236  -0.0080  0.1843  0.8767  -1.6601   0.0000   0.2531
   5.000   0.6851   0.00732   0.00243  -0.0080  0.1824  0.8867  -1.7028   0.0000   0.2525
   5.200   0.7073   0.00737   0.00251  -0.0079  0.1803  0.8962  -1.7465   0.0000   0.2519
   5.400   0.7294   0.00744   0.00259  -0.0079  0.1779  0.9052  -1.7904   0.0000   0.2512
   5.600   0.7514   0.00753   0.00268  -0.0078  0.1754  0.9140  -1.8344   0.0000   0.2506
   5.800   0.7731   0.00761   0.00277  -0.0076  0.1729  0.9223  -1.8789   0.0000   0.2499
   6.000   0.7951   0.00767   0.00285  -0.0075  0.1713  0.9299  -1.9256   0.0000   0.2493
   6.200   0.8169   0.00775   0.00294  -0.0074  0.1691  0.9371  -1.9724   0.0000   0.2487
   6.400   0.8384   0.00785   0.00304  -0.0073  0.1669  0.9442  -2.0192   0.0000   0.2481
   6.600   0.8596   0.00796   0.00315  -0.0070  0.1640  0.9505  -2.0663   0.0000   0.2474
   6.800   0.8812   0.00805   0.00324  -0.0069  0.1623  0.9565  -2.1159   0.0000   0.2468
   7.000   0.9026   0.00813   0.00334  -0.0067  0.1606  0.9623  -2.1657   0.0000   0.2461
   7.200   0.9241   0.00824   0.00344  -0.0065  0.1585  0.9673  -2.2158   0.0000   0.2455
   7.400   0.9451   0.00836   0.00355  -0.0063  0.1559  0.9726  -2.2671   0.0000   0.2449
   7.600   0.9671   0.00849   0.00367  -0.0063  0.1534  0.9765  -2.3208   0.0000   0.2445
   7.800   0.9891   0.00858   0.00377  -0.0062  0.1519  0.9807  -2.3750   0.0000   0.2441
   8.000   1.0125   0.00870   0.00389  -0.0065  0.1498  0.9836  -2.4325   0.0000   0.2440
   8.200   1.0346   0.00884   0.00401  -0.0066  0.1473  0.9871  -2.4902   0.0000   0.2437
   8.400   1.0590   0.00900   0.00416  -0.0072  0.1443  0.9888  -2.5513   0.0000   0.2438
   8.600   1.0836   0.00912   0.00428  -0.0078  0.1428  0.9907  -2.6155   0.0000   0.2440
   8.800   1.1073   0.00926   0.00441  -0.0082  0.1406  0.9928  -2.6796   0.0000   0.2439
   9.000   1.1328   0.00942   0.00456  -0.0091  0.1379  0.9936  -2.7485   0.0000   0.2443
   9.200   1.1582   0.00961   0.00472  -0.0100  0.1348  0.9943  -2.8192   0.0000   0.2446
   9.400   1.1838   0.00974   0.00486  -0.0108  0.1331  0.9951  -2.8936   0.0000   0.2449
   9.600   1.2088   0.00991   0.00502  -0.0116  0.1304  0.9960  -2.9694   0.0000   0.2450
   9.800   1.2331   0.01012   0.00520  -0.0123  0.1272  0.9971  -3.0473   0.0000   0.2451
  10.000   1.2580   0.01028   0.00536  -0.0130  0.1248  0.9978  -3.1312   0.0000   0.2452
  10.200   1.2830   0.01046   0.00553  -0.0138  0.1221  0.9984  -3.2203   0.0000   0.2453
  10.400   1.3073   0.01069   0.00573  -0.0145  0.1186  0.9990  -3.3134   0.0000   0.2454
  10.600   1.3318   0.01087   0.00592  -0.0153  0.1160  0.9997  -3.4130   0.0000   0.2454
  10.800   1.3519   0.01106   0.00610  -0.0151  0.1133  1.0000  -3.5074   0.0000   0.2447
  11.000   1.3661   0.01127   0.00629  -0.0136  0.1102  1.0000  -3.5918   0.0000   0.2433
  11.200   1.3815   0.01144   0.00646  -0.0124  0.1079  1.0000  -3.6823   0.0000   0.2419
  11.400   1.3971   0.01162   0.00664  -0.0113  0.1053  1.0000  -3.7772   0.0000   0.2407
  11.600   1.4121   0.01185   0.00686  -0.0100  0.1022  1.0000  -3.8710   0.0000   0.2394
  11.800   1.4282   0.01206   0.00706  -0.0090  0.0996  1.0000  -3.9725   0.0000   0.2383
  12.000   1.4446   0.01228   0.00727  -0.0081  0.0969  1.0000  -4.0781   0.0000   0.2372
  12.200   1.4604   0.01256   0.00753  -0.0071  0.0935  1.0000  -4.1825   0.0000   0.2362
  12.400   1.4774   0.01279   0.00777  -0.0064  0.0910  1.0000  -4.2917   0.0000   0.2353
  12.600   1.4935   0.01308   0.00804  -0.0055  0.0876  1.0000  -4.4045   0.0000   0.2343
  12.800   1.5096   0.01337   0.00833  -0.0047  0.0847  1.0000  -4.5198   0.0000   0.2333
  13.000   1.5259   0.01365   0.00860  -0.0039  0.0819  1.0000  -4.6369   0.0000   0.2324
  13.200   1.5402   0.01403   0.00895  -0.0028  0.0781  1.0000  -4.7485   0.0000   0.2314
  13.400   1.5551   0.01432   0.00925  -0.0018  0.0754  1.0000  -4.8634   0.0000   0.2303
  13.600   1.5667   0.01471   0.00963  -0.0002  0.0719  1.0000  -4.9696   0.0000   0.2289
  13.800   1.5798   0.01504   0.00996   0.0011  0.0695  1.0000  -5.0877   0.0000   0.2277
  14.000   1.5920   0.01544   0.01036   0.0024  0.0667  1.0000  -5.2033   0.0000   0.2265
  14.200   1.6036   0.01589   0.01080   0.0038  0.0638  1.0000  -5.3179   0.0000   0.2253
  14.400   1.6155   0.01633   0.01124   0.0051  0.0610  1.0000  -5.4347   0.0000   0.2241
  14.600   1.6256   0.01688   0.01178   0.0065  0.0577  1.0000  -5.5451   0.0000   0.2229
  14.800   1.6368   0.01739   0.01230   0.0077  0.0551  1.0000  -5.6610   0.0000   0.2218
  15.200   1.6570   0.01858   0.01349   0.0102  0.0501  1.0000  -5.8859   0.0000   0.2195
  15.400   1.6658   0.01927   0.01419   0.0115  0.0477  1.0000  -5.9951   0.0000   0.2184
  15.600   1.6748   0.01998   0.01490   0.0126  0.0456  1.0000  -6.1122   0.0000   0.2173
  15.800   1.6841   0.02069   0.01563   0.0137  0.0438  1.0000  -6.2310   0.0000   0.2163
  16.000   1.6909   0.02159   0.01654   0.0149  0.0416  1.0000  -6.3401   0.0000   0.2152
  16.200   1.6989   0.02244   0.01741   0.0158  0.0399  1.0000  -6.4553   0.0000   0.2142
  16.400   1.7059   0.02340   0.01839   0.0168  0.0382  1.0000  -6.5664   0.0000   0.2132
  16.600   1.7102   0.02459   0.01960   0.0177  0.0362  1.0000  -6.6661   0.0000   0.2122
  16.800   1.7167   0.02567   0.02071   0.0185  0.0348  1.0000  -6.7758   0.0000   0.2114
  17.000   1.7218   0.02690   0.02196   0.0191  0.0334  1.0000  -6.8799   0.0000   0.2105
  17.200   1.7247   0.02836   0.02345   0.0198  0.0319  1.0000  -6.9739   0.0000   0.2097
  17.400   1.7280   0.02986   0.02498   0.0202  0.0307  1.0000  -7.0696   0.0000   0.2090
  17.600   1.7322   0.03132   0.02649   0.0205  0.0299  1.0000  -7.1698   0.0000   0.2083
  17.800   1.7344   0.03301   0.02822   0.0208  0.0289  1.0000  -7.2609   0.0000   0.2077
  18.000   1.7346   0.03497   0.03021   0.0209  0.0280  1.0000  -7.3421   0.0000   0.2071
  18.200   1.7327   0.03720   0.03249   0.0209  0.0270  1.0000  -7.4130   0.0000   0.2066
  18.400   1.7316   0.03941   0.03475   0.0207  0.0262  1.0000  -7.4869   0.0000   0.2061
  18.600   1.7304   0.04169   0.03709   0.0205  0.0257  1.0000  -7.5607   0.0000   0.2057
  18.800   1.7275   0.04425   0.03970   0.0200  0.0251  1.0000  -7.6267   0.0000   0.2054
  19.000   1.7224   0.04713   0.04264   0.0194  0.0245  1.0000  -7.6839   0.0000   0.2051
  19.200   1.7143   0.05040   0.04598   0.0186  0.0240  1.0000  -7.7246   0.0000   0.2050
  19.400   1.7041   0.05402   0.04968   0.0176  0.0235  1.0000  -7.7526   0.0000   0.2049
  19.600   1.6918   0.05800   0.05373   0.0164  0.0229  1.0000  -7.7674   0.0000   0.2049
  19.800   1.6776   0.06227   0.05809   0.0151  0.0225  1.0000  -7.7702   0.0000   0.2050
  20.000   1.6627   0.06671   0.06261   0.0136  0.0222  1.0000  -7.7674   0.0000   0.2052
  20.200   1.6463   0.07146   0.06745   0.0119  0.0220  1.0000  -7.7536   0.0000   0.2056
  20.400   1.6273   0.07660   0.07269   0.0101  0.0218  1.0000  -7.7233   0.0000   0.2060
  20.600   1.6058   0.08212   0.07831   0.0080  0.0217  1.0000  -7.6759   0.0000   0.2066
  20.800   1.5824   0.08803   0.08432   0.0057  0.0216  1.0000  -7.6143   0.0000   0.2074
  21.000   1.5568   0.09433   0.09074   0.0032  0.0215  1.0000  -7.5361   0.0000   0.2084
  21.200   1.5294   0.10095   0.09746   0.0005  0.0214  1.0000  -7.4433   0.0000   0.2095
  21.400   1.5028   0.10759   0.10421  -0.0024  0.0213  1.0000  -7.3505   0.0000   0.2108
  21.600   1.4776   0.11413   0.11085  -0.0053  0.0212  1.0000  -7.2615   0.0000   0.2122
  21.800   1.4527   0.12063   0.11745  -0.0083  0.0211  1.0000  -7.1709   0.0000   0.2138
  22.000   1.4297   0.12701   0.12392  -0.0114  0.0209  1.0000  -7.0864   0.0000   0.2155
  22.200   1.4095   0.13303   0.13001  -0.0145  0.0207  1.0000  -7.0163   0.0000   0.2172
  22.400   1.3913   0.13882   0.13588  -0.0175  0.0204  1.0000  -6.9542   0.0000   0.2190
  22.600   1.3741   0.14446   0.14159  -0.0206  0.0201  1.0000  -6.8952   0.0000   0.2208
  22.800   1.3590   0.14986   0.14705  -0.0236  0.0198  1.0000  -6.8470   0.0000   0.2227
  23.000   1.3474   0.15474   0.15198  -0.0265  0.0193  1.0000  -6.8188   0.0000   0.2244
  23.200   1.3344   0.15995   0.15724  -0.0296  0.0188  1.0000  -6.7768   0.0000   0.2264
  23.400   1.3242   0.16472   0.16206  -0.0326  0.0184  1.0000  -6.7519   0.0000   0.2282
  23.600   1.3196   0.16850   0.16588  -0.0350  0.0182  1.0000  -6.7670   0.0000   0.2296
  23.800   1.3122   0.17279   0.17023  -0.0378  0.0179  1.0000  -6.7584   0.0000   0.2313
  24.000   1.3080   0.17650   0.17396  -0.0403  0.0175  1.0000  -6.7734   0.0000   0.2327
  24.200   1.3009   0.18079   0.17830  -0.0432  0.0172  1.0000  -6.7621   0.0000   0.2346
  24.400   1.2970   0.18453   0.18207  -0.0458  0.0167  1.0000  -6.7748   0.0000   0.2361
  24.600   1.2906   0.18881   0.18639  -0.0488  0.0163  1.0000  -6.7631   0.0000   0.2380
  24.800   1.2866   0.19264   0.19024  -0.0516  0.0159  1.0000  -6.7700   0.0000   0.2397
  25.000   1.2814   0.19678   0.19442  -0.0546  0.0154  1.0000  -6.7627   0.0000   0.2416


