xflr5 v6.47

 Calculated polar for: NACA 23015

 1 1 Reynolds number fixed          Mach number fixed         

 xtrf =   1.000 (top)        1.000 (bottom)
 Mach =   0.003     Re =     0.350 e 6     Ncrit =   7.000

  alpha     CL        CD       CDp       Cm    Top Xtr Bot Xtr   Cpmin    Chinge    XCp    
 ------- -------- --------- --------- -------- ------- ------- -------- --------- ---------
 -15.000  -0.3513   0.14214   0.13933  -0.0135  1.0000  0.0349  -1.4672   0.0000   0.1958
 -14.800  -0.3722   0.13732   0.13449  -0.0173  1.0000  0.0356  -1.7638   0.0000   0.1871
 -14.600  -0.3797   0.13389   0.13105  -0.0192  1.0000  0.0357  -1.8933   0.0000   0.1829
 -14.400  -0.3687   0.13334   0.13052  -0.0182  1.0000  0.0360  -1.7681   0.0000   0.1843
 -14.000  -0.5763   0.13298   0.12987  -0.0068  1.0000  0.0266  -2.9775   0.0000   0.2183
 -13.400  -0.8521   0.06086   0.05697  -0.0489  1.0000  0.0244  -5.9343   0.0000   0.1745
 -13.200  -0.8865   0.05429   0.05010  -0.0516  1.0000  0.0244  -6.1448   0.0000   0.1744
 -13.000  -0.9097   0.04975   0.04532  -0.0522  1.0000  0.0245  -6.2619   0.0000   0.1758
 -12.800  -0.9270   0.04623   0.04157  -0.0517  1.0000  0.0247  -6.3314   0.0000   0.1779
 -12.600  -0.9402   0.04333   0.03845  -0.0505  1.0000  0.0248  -6.3708   0.0000   0.1804
 -12.400  -0.9502   0.04085   0.03576  -0.0487  1.0000  0.0250  -6.3881   0.0000   0.1833
 -12.200  -0.9576   0.03869   0.03339  -0.0465  1.0000  0.0253  -6.3882   0.0000   0.1863
 -12.000  -0.9629   0.03680   0.03127  -0.0440  1.0000  0.0255  -6.3742   0.0000   0.1895
 -11.800  -0.9663   0.03514   0.02941  -0.0412  1.0000  0.0258  -6.3468   0.0000   0.1929
 -11.600  -0.9674   0.03371   0.02776  -0.0384  1.0000  0.0260  -6.3043   0.0000   0.1961
 -11.400  -0.9644   0.03243   0.02627  -0.0361  1.0000  0.0263  -6.2407   0.0000   0.1987
 -11.200  -0.9582   0.03109   0.02480  -0.0342  1.0000  0.0266  -6.1549   0.0000   0.2007
 -11.000  -0.9483   0.03019   0.02389  -0.0326  1.0000  0.0269  -6.0318   0.0000   0.2022
 -10.800  -0.9380   0.02957   0.02327  -0.0310  1.0000  0.0272  -5.9091   0.0000   0.2038
 -10.600  -0.9278   0.02903   0.02269  -0.0293  1.0000  0.0276  -5.7882   0.0000   0.2055
 -10.400  -0.9181   0.02847   0.02209  -0.0274  1.0000  0.0279  -5.6734   0.0000   0.2075
 -10.200  -0.9084   0.02786   0.02143  -0.0255  1.0000  0.0283  -5.5646   0.0000   0.2095
 -10.000  -0.8986   0.02721   0.02071  -0.0235  1.0000  0.0287  -5.4609   0.0000   0.2116
  -9.800  -0.8888   0.02650   0.01991  -0.0215  1.0000  0.0292  -5.3627   0.0000   0.2138
  -9.600  -0.8790   0.02575   0.01906  -0.0195  1.0000  0.0296  -5.2699   0.0000   0.2160
  -9.400  -0.8691   0.02501   0.01821  -0.0174  1.0000  0.0301  -5.1786   0.0000   0.2183
  -9.200  -0.8590   0.02435   0.01743  -0.0153  1.0000  0.0305  -5.0867   0.0000   0.2207
  -9.000  -0.8489   0.02378   0.01674  -0.0132  1.0000  0.0308  -4.9924   0.0000   0.2232
  -8.800  -0.8382   0.02296   0.01592  -0.0114  1.0000  0.0313  -4.8910   0.0000   0.2254
  -8.600  -0.8274   0.02245   0.01542  -0.0095  1.0000  0.0317  -4.7798   0.0000   0.2278
  -8.400  -0.8167   0.02203   0.01500  -0.0075  1.0000  0.0321  -4.6682   0.0000   0.2302
  -8.200  -0.7913   0.02149   0.01445  -0.0085  0.9982  0.0328  -4.5099   0.0000   0.2288
  -8.000  -0.7637   0.02092   0.01383  -0.0098  0.9959  0.0336  -4.3503   0.0000   0.2268
  -7.800  -0.7357   0.02036   0.01321  -0.0112  0.9936  0.0346  -4.1936   0.0000   0.2245
  -7.600  -0.7079   0.01987   0.01261  -0.0125  0.9909  0.0356  -4.0415   0.0000   0.2222
  -7.400  -0.6809   0.01914   0.01192  -0.0138  0.9883  0.0365  -3.8879   0.0000   0.2197
  -7.200  -0.6532   0.01866   0.01146  -0.0152  0.9854  0.0374  -3.7283   0.0000   0.2168
  -7.000  -0.6253   0.01818   0.01097  -0.0165  0.9823  0.0385  -3.5774   0.0000   0.2137
  -6.800  -0.5961   0.01767   0.01043  -0.0180  0.9799  0.0397  -3.4404   0.0000   0.2098
  -6.600  -0.5691   0.01723   0.00992  -0.0190  0.9757  0.0407  -3.3124   0.0000   0.2066
  -6.400  -0.5407   0.01659   0.00933  -0.0206  0.9731  0.0419  -3.1755   0.0000   0.2021
  -6.200  -0.5146   0.01620   0.00897  -0.0215  0.9682  0.0433  -3.0418   0.0000   0.1984
  -6.000  -0.4864   0.01581   0.00856  -0.0227  0.9645  0.0451  -2.9081   0.0000   0.1934
  -5.800  -0.4624   0.01541   0.00813  -0.0231  0.9581  0.0466  -2.7899   0.0000   0.1902
  -5.600  -0.4384   0.01497   0.00773  -0.0235  0.9518  0.0481  -2.6679   0.0000   0.1866
  -5.400  -0.4136   0.01460   0.00736  -0.0240  0.9456  0.0499  -2.5473   0.0000   0.1822
  -5.200  -0.3914   0.01429   0.00701  -0.0238  0.9368  0.0517  -2.4372   0.0000   0.1793
  -5.000  -0.3706   0.01390   0.00665  -0.0234  0.9275  0.0536  -2.3289   0.0000   0.1768
  -4.800  -0.3492   0.01362   0.00637  -0.0231  0.9177  0.0560  -2.2231   0.0000   0.1738
  -4.600  -0.3283   0.01334   0.00605  -0.0227  0.9070  0.0585  -2.1279   0.0000   0.1710
  -4.400  -0.3083   0.01304   0.00576  -0.0221  0.8954  0.0611  -2.0330   0.0000   0.1684
  -4.200  -0.2878   0.01281   0.00549  -0.0215  0.8828  0.0640  -1.9404   0.0000   0.1654
  -4.000  -0.2683   0.01253   0.00520  -0.0207  0.8683  0.0672  -1.8495   0.0000   0.1626
  -3.600  -0.2287   0.01211   0.00469  -0.0192  0.8334  0.0759  -1.6697   0.0000   0.1555
  -3.400  -0.2090   0.01191   0.00445  -0.0185  0.8157  0.0814  -1.5817   0.0000   0.1507
  -3.200  -0.1890   0.01172   0.00423  -0.0179  0.7990  0.0883  -1.4947   0.0000   0.1445
  -3.000  -0.1690   0.01152   0.00402  -0.0173  0.7825  0.0986  -1.4157   0.0000   0.1365
  -2.800  -0.1495   0.01128   0.00380  -0.0167  0.7658  0.1169  -1.3390   0.0000   0.1271
  -2.600  -0.1370   0.01027   0.00339  -0.0152  0.7497  0.2677  -1.2774   0.0000   0.1275
  -2.400  -0.1229   0.00958   0.00319  -0.0138  0.7335  0.4019  -1.2121   0.0000   0.1258
  -2.200  -0.1056   0.00928   0.00308  -0.0128  0.7170  0.4705  -1.1404   0.0000   0.1166
  -2.000  -0.0871   0.00908   0.00301  -0.0119  0.7001  0.5190  -1.0673   0.0000   0.1003
  -1.800  -0.0680   0.00895   0.00295  -0.0111  0.6830  0.5590  -0.9952   0.0000   0.0723
  -1.600  -0.0486   0.00886   0.00290  -0.0104  0.6657  0.5929  -0.9280   0.0000   0.0204
  -1.400  -0.0289   0.00879   0.00287  -0.0096  0.6486  0.6236  -0.8614   0.0000  -0.1051
  -1.200  -0.0091   0.00875   0.00285  -0.0089  0.6316  0.6518  -0.7954   0.0000  -0.7821
  -1.000   0.0109   0.00873   0.00283  -0.0082  0.6145  0.6777  -0.7302   0.0000   1.0377
  -0.800   0.0310   0.00872   0.00283  -0.0076  0.5970  0.7029  -0.6949   0.0000   0.5000
  -0.600   0.0512   0.00872   0.00284  -0.0069  0.5798  0.7265  -0.7212   0.0000   0.3855
  -0.400   0.0715   0.00874   0.00286  -0.0063  0.5628  0.7491  -0.7476   0.0000   0.3358
  -0.200   0.0916   0.00878   0.00288  -0.0056  0.5456  0.7718  -0.7741   0.0000   0.3078
   0.200   0.1319   0.00890   0.00299  -0.0042  0.5114  0.8159  -0.8284   0.0000   0.2766
   0.400   0.1526   0.00898   0.00304  -0.0036  0.4945  0.8316  -0.8570   0.0000   0.2683
   0.600   0.1736   0.00908   0.00308  -0.0031  0.4775  0.8441  -0.8859   0.0000   0.2624
   0.800   0.1946   0.00919   0.00313  -0.0027  0.4604  0.8560  -0.9149   0.0000   0.2579
   1.000   0.2155   0.00932   0.00318  -0.0022  0.4435  0.8676  -0.9441   0.0000   0.2541
   1.200   0.2364   0.00945   0.00325  -0.0018  0.4271  0.8789  -0.9742   0.0000   0.2511
   1.400   0.2577   0.00959   0.00332  -0.0014  0.4110  0.8893  -1.0053   0.0000   0.2488
   1.600   0.2793   0.00975   0.00341  -0.0011  0.3950  0.8989  -1.0369   0.0000   0.2471
   1.800   0.3010   0.00991   0.00350  -0.0008  0.3793  0.9080  -1.0687   0.0000   0.2458
   2.000   0.3228   0.01009   0.00360  -0.0006  0.3645  0.9169  -1.1007   0.0000   0.2447
   2.200   0.3446   0.01026   0.00370  -0.0004  0.3507  0.9258  -1.1338   0.0000   0.2438
   2.400   0.3675   0.01045   0.00382  -0.0004  0.3378  0.9334  -1.1686   0.0000   0.2437
   2.600   0.3916   0.01065   0.00394  -0.0007  0.3254  0.9397  -1.2047   0.0000   0.2443
   2.800   0.4150   0.01084   0.00406  -0.0009  0.3142  0.9468  -1.2403   0.0000   0.2444
   3.000   0.4405   0.01104   0.00420  -0.0015  0.3040  0.9522  -1.2779   0.0000   0.2456
   3.200   0.4662   0.01125   0.00434  -0.0022  0.2950  0.9574  -1.3176   0.0000   0.2468
   3.400   0.4924   0.01146   0.00448  -0.0030  0.2866  0.9624  -1.3581   0.0000   0.2481
   3.600   0.5202   0.01165   0.00462  -0.0042  0.2789  0.9661  -1.4004   0.0000   0.2500
   3.800   0.5488   0.01188   0.00478  -0.0056  0.2720  0.9695  -1.4437   0.0000   0.2520
   4.000   0.5768   0.01206   0.00493  -0.0069  0.2657  0.9733  -1.4879   0.0000   0.2536
   4.200   0.6070   0.01228   0.00509  -0.0087  0.2600  0.9756  -1.5352   0.0000   0.2558
   4.400   0.6351   0.01246   0.00524  -0.0100  0.2544  0.9792  -1.5810   0.0000   0.2571
   4.600   0.6641   0.01269   0.00541  -0.0116  0.2495  0.9818  -1.6281   0.0000   0.2586
   4.800   0.6937   0.01285   0.00557  -0.0132  0.2448  0.9845  -1.6771   0.0000   0.2601
   5.000   0.7217   0.01305   0.00573  -0.0146  0.2405  0.9876  -1.7260   0.0000   0.2611
   5.200   0.7511   0.01326   0.00590  -0.0162  0.2365  0.9899  -1.7765   0.0000   0.2624
   5.400   0.7797   0.01343   0.00608  -0.0177  0.2323  0.9928  -1.8267   0.0000   0.2633
   5.600   0.8089   0.01363   0.00624  -0.0194  0.2285  0.9949  -1.8798   0.0000   0.2644
   5.800   0.8376   0.01385   0.00644  -0.0210  0.2251  0.9973  -1.9330   0.0000   0.2652
   6.000   0.8670   0.01401   0.00660  -0.0226  0.2214  0.9992  -1.9876   0.0000   0.2661
   6.200   0.8873   0.01419   0.00677  -0.0225  0.2183  1.0000  -2.0324   0.0000   0.2651
   6.400   0.9018   0.01441   0.00695  -0.0212  0.2159  1.0000  -2.0724   0.0000   0.2630
   6.600   0.9173   0.01455   0.00712  -0.0200  0.2134  1.0000  -2.1135   0.0000   0.2611
   6.800   0.9328   0.01470   0.00729  -0.0188  0.2107  1.0000  -2.1549   0.0000   0.2592
   7.000   0.9478   0.01487   0.00746  -0.0175  0.2081  1.0000  -2.1962   0.0000   0.2573
   7.200   0.9622   0.01510   0.00766  -0.0161  0.2058  1.0000  -2.2391   0.0000   0.2553
   7.400   0.9769   0.01532   0.00788  -0.0148  0.2035  1.0000  -2.2822   0.0000   0.2535
   7.600   0.9923   0.01548   0.00808  -0.0136  0.2011  1.0000  -2.3264   0.0000   0.2517
   7.800   1.0075   0.01566   0.00828  -0.0123  0.1986  1.0000  -2.3717   0.0000   0.2500
   8.000   1.0222   0.01588   0.00848  -0.0110  0.1963  1.0000  -2.4181   0.0000   0.2483
   8.200   1.0364   0.01616   0.00873  -0.0096  0.1942  1.0000  -2.4639   0.0000   0.2466
   8.400   1.0520   0.01635   0.00897  -0.0084  0.1920  1.0000  -2.5118   0.0000   0.2450
   8.600   1.0675   0.01654   0.00920  -0.0073  0.1895  1.0000  -2.5622   0.0000   0.2436
   8.800   1.0827   0.01676   0.00943  -0.0061  0.1872  1.0000  -2.6128   0.0000   0.2421
   9.000   1.0974   0.01702   0.00968  -0.0048  0.1851  1.0000  -2.6640   0.0000   0.2406
   9.200   1.1120   0.01732   0.00997  -0.0035  0.1831  1.0000  -2.7165   0.0000   0.2391
   9.400   1.1278   0.01752   0.01024  -0.0025  0.1807  1.0000  -2.7716   0.0000   0.2378
   9.600   1.1434   0.01775   0.01051  -0.0014  0.1783  1.0000  -2.8292   0.0000   0.2366
   9.800   1.1587   0.01801   0.01078  -0.0003  0.1761  1.0000  -2.8878   0.0000   0.2353
  10.000   1.1735   0.01833   0.01107   0.0008  0.1741  1.0000  -2.9481   0.0000   0.2341
  10.200   1.1889   0.01862   0.01141   0.0018  0.1719  1.0000  -3.0117   0.0000   0.2329
  10.400   1.2047   0.01887   0.01173   0.0028  0.1695  1.0000  -3.0783   0.0000   0.2318
  10.600   1.2200   0.01914   0.01204   0.0038  0.1672  1.0000  -3.1477   0.0000   0.2307
  10.800   1.2345   0.01946   0.01236   0.0049  0.1651  1.0000  -3.2195   0.0000   0.2296
  11.000   1.2482   0.01985   0.01273   0.0060  0.1630  1.0000  -3.2920   0.0000   0.2284
  11.200   1.2624   0.02012   0.01310   0.0072  0.1607  1.0000  -3.3684   0.0000   0.2272
  11.400   1.2756   0.02042   0.01346   0.0085  0.1583  1.0000  -3.4462   0.0000   0.2259
  11.600   1.2881   0.02077   0.01382   0.0098  0.1561  1.0000  -3.5251   0.0000   0.2246
  11.800   1.2998   0.02120   0.01424   0.0112  0.1541  1.0000  -3.6034   0.0000   0.2233
  12.000   1.3130   0.02158   0.01469   0.0123  0.1517  1.0000  -3.6894   0.0000   0.2222
  12.200   1.3260   0.02196   0.01515   0.0134  0.1492  1.0000  -3.7759   0.0000   0.2211
  12.400   1.3382   0.02239   0.01562   0.0145  0.1469  1.0000  -3.8612   0.0000   0.2200
  12.600   1.3490   0.02293   0.01614   0.0157  0.1447  1.0000  -3.9487   0.0000   0.2188
  12.800   1.3613   0.02341   0.01671   0.0167  0.1424  1.0000  -4.0402   0.0000   0.2179
  13.000   1.3735   0.02390   0.01728   0.0176  0.1397  1.0000  -4.1323   0.0000   0.2169
  13.200   1.3843   0.02448   0.01790   0.0186  0.1373  1.0000  -4.2214   0.0000   0.2159
  13.400   1.3934   0.02520   0.01860   0.0197  0.1352  1.0000  -4.3082   0.0000   0.2149
  13.600   1.4050   0.02580   0.01931   0.0205  0.1326  1.0000  -4.4060   0.0000   0.2140
  13.800   1.4156   0.02647   0.02005   0.0212  0.1300  1.0000  -4.5014   0.0000   0.2132
  14.000   1.4243   0.02728   0.02089   0.0221  0.1276  1.0000  -4.5914   0.0000   0.2123
  14.200   1.4321   0.02820   0.02184   0.0229  0.1254  1.0000  -4.6787   0.0000   0.2114
  14.400   1.4422   0.02900   0.02275   0.0235  0.1227  1.0000  -4.7736   0.0000   0.2107
  14.600   1.4502   0.02998   0.02378   0.0241  0.1202  1.0000  -4.8620   0.0000   0.2099
  14.800   1.4557   0.03117   0.02498   0.0247  0.1180  1.0000  -4.9463   0.0000   0.2091
  15.000   1.4633   0.03227   0.02617   0.0251  0.1155  1.0000  -5.0392   0.0000   0.2085
  15.200   1.4702   0.03346   0.02744   0.0255  0.1128  1.0000  -5.1302   0.0000   0.2079
  15.400   1.4746   0.03490   0.02893   0.0258  0.1105  1.0000  -5.2118   0.0000   0.2073
  15.600   1.4777   0.03650   0.03058   0.0260  0.1083  1.0000  -5.2884   0.0000   0.2067
  15.800   1.4832   0.03796   0.03214   0.0260  0.1057  1.0000  -5.3739   0.0000   0.2063
  16.000   1.4857   0.03974   0.03398   0.0260  0.1032  1.0000  -5.4477   0.0000   0.2058
  16.200   1.4850   0.04189   0.03617   0.0258  0.1012  1.0000  -5.5083   0.0000   0.2054
  16.400   1.4873   0.04381   0.03818   0.0256  0.0988  1.0000  -5.5804   0.0000   0.2051
  16.600   1.4874   0.04602   0.04047   0.0253  0.0964  1.0000  -5.6429   0.0000   0.2049
  16.800   1.4841   0.04863   0.04315   0.0247  0.0942  1.0000  -5.6911   0.0000   0.2047
  17.000   1.4800   0.05143   0.04601   0.0240  0.0923  1.0000  -5.7342   0.0000   0.2046
  17.200   1.4778   0.05409   0.04878   0.0233  0.0900  1.0000  -5.7871   0.0000   0.2045
  17.400   1.4719   0.05727   0.05203   0.0223  0.0879  1.0000  -5.8244   0.0000   0.2046
  17.600   1.4627   0.06090   0.05572   0.0211  0.0861  1.0000  -5.8452   0.0000   0.2048
  17.800   1.4549   0.06444   0.05935   0.0198  0.0843  1.0000  -5.8708   0.0000   0.2050
  18.000   1.4469   0.06810   0.06311   0.0185  0.0823  1.0000  -5.8938   0.0000   0.2053
  18.200   1.4357   0.07225   0.06734   0.0169  0.0805  1.0000  -5.8998   0.0000   0.2058
  18.400   1.4215   0.07684   0.07200   0.0151  0.0790  1.0000  -5.8896   0.0000   0.2064
  18.600   1.4083   0.08138   0.07662   0.0132  0.0774  1.0000  -5.8819   0.0000   0.2071
  18.800   1.3962   0.08587   0.08121   0.0114  0.0756  1.0000  -5.8773   0.0000   0.2078
  19.000   1.3817   0.09074   0.08616   0.0093  0.0739  1.0000  -5.8587   0.0000   0.2086
  19.200   1.3653   0.09593   0.09141   0.0070  0.0724  1.0000  -5.8279   0.0000   0.2097
  19.400   1.3490   0.10116   0.09668   0.0047  0.0710  1.0000  -5.7954   0.0000   0.2108
  19.600   1.3363   0.10596   0.10160   0.0025  0.0693  1.0000  -5.7782   0.0000   0.2119
  19.800   1.3218   0.11107   0.10678   0.0001  0.0676  1.0000  -5.7497   0.0000   0.2131
  20.000   1.3070   0.11625   0.11201  -0.0023  0.0660  1.0000  -5.7170   0.0000   0.2145
  20.200   1.2937   0.12119   0.11696  -0.0048  0.0646  1.0000  -5.6917   0.0000   0.2159
  20.400   1.2821   0.12603   0.12190  -0.0072  0.0629  1.0000  -5.6701   0.0000   0.2173
  20.600   1.2704   0.13091   0.12685  -0.0097  0.0611  1.0000  -5.6464   0.0000   0.2189
  20.800   1.2597   0.13562   0.13160  -0.0123  0.0595  1.0000  -5.6271   0.0000   0.2204
  21.000   1.2519   0.13980   0.13576  -0.0146  0.0580  1.0000  -5.6245   0.0000   0.2218
  21.200   1.2422   0.14449   0.14055  -0.0172  0.0563  1.0000  -5.6041   0.0000   0.2235
  21.400   1.2341   0.14892   0.14505  -0.0197  0.0547  1.0000  -5.5918   0.0000   0.2251
  21.600   1.2279   0.15302   0.14915  -0.0222  0.0532  1.0000  -5.5913   0.0000   0.2267
  21.800   1.2252   0.15643   0.15254  -0.0243  0.0517  1.0000  -5.6136   0.0000   0.2279
  22.000   1.2173   0.16099   0.15719  -0.0270  0.0502  1.0000  -5.5937   0.0000   0.2298
  22.200   1.2116   0.16514   0.16140  -0.0297  0.0486  1.0000  -5.5883   0.0000   0.2316
  22.400   1.2092   0.16860   0.16485  -0.0319  0.0472  1.0000  -5.6066   0.0000   0.2330
  22.600   1.2091   0.17156   0.16779  -0.0339  0.0459  1.0000  -5.6416   0.0000   0.2340
  22.800   1.2024   0.17604   0.17236  -0.0368  0.0445  1.0000  -5.6192   0.0000   0.2361
  23.000   1.1984   0.17997   0.17634  -0.0395  0.0431  1.0000  -5.6196   0.0000   0.2380
  23.200   1.1979   0.18314   0.17950  -0.0417  0.0418  1.0000  -5.6515   0.0000   0.2393
  23.400   1.2017   0.18535   0.18167  -0.0434  0.0406  1.0000  -5.7186   0.0000   0.2400
  23.600   1.1956   0.18986   0.18627  -0.0465  0.0395  1.0000  -5.6948   0.0000   0.2423
  23.800   1.1917   0.19392   0.19040  -0.0494  0.0383  1.0000  -5.6880   0.0000   0.2443
  24.000   1.1915   0.19713   0.19363  -0.0518  0.0372  1.0000  -5.7148   0.0000   0.2458
  24.200   1.1966   0.19909   0.19555  -0.0534  0.0362  1.0000  -5.7911   0.0000   0.2463
  24.400   1.1981   0.20188   0.19835  -0.0555  0.0353  1.0000  -5.8302   0.0000   0.2474
  24.600   1.1921   0.20657   0.20314  -0.0589  0.0343  1.0000  -5.7922   0.0000   0.2500
  24.800   1.1890   0.21058   0.20721  -0.0619  0.0333  1.0000  -5.7803   0.0000   0.2522
  25.000   1.1892   0.21377   0.21042  -0.0644  0.0324  1.0000  -5.8019   0.0000   0.2537


