xflr5 v6.47

 Calculated polar for: NACA 23015

 1 1 Reynolds number fixed          Mach number fixed         

 xtrf =   1.000 (top)        1.000 (bottom)
 Mach =   0.003     Re =     0.650 e 6     Ncrit =   7.000

  alpha     CL        CD       CDp       Cm    Top Xtr Bot Xtr   Cpmin    Chinge    XCp    
 ------- -------- --------- --------- -------- ------- ------- -------- --------- ---------
 -15.000  -1.1278   0.04197   0.03730  -0.0520  1.0000  0.0184  -8.8737   0.0000   0.1839
 -14.800  -1.1303   0.03964   0.03485  -0.0519  1.0000  0.0185  -8.8257   0.0000   0.1846
 -14.600  -1.1342   0.03726   0.03236  -0.0514  1.0000  0.0187  -8.7879   0.0000   0.1855
 -14.400  -1.1339   0.03541   0.03042  -0.0509  1.0000  0.0189  -8.7135   0.0000   0.1864
 -14.200  -1.1309   0.03389   0.02882  -0.0502  1.0000  0.0190  -8.6177   0.0000   0.1873
 -14.000  -1.1261   0.03259   0.02746  -0.0494  1.0000  0.0192  -8.5079   0.0000   0.1882
 -13.800  -1.1200   0.03145   0.02627  -0.0485  1.0000  0.0193  -8.3889   0.0000   0.1891
 -13.600  -1.1131   0.03042   0.02519  -0.0476  1.0000  0.0195  -8.2642   0.0000   0.1900
 -13.400  -1.1055   0.02948   0.02420  -0.0465  1.0000  0.0196  -8.1353   0.0000   0.1910
 -13.200  -1.0974   0.02862   0.02328  -0.0454  1.0000  0.0198  -8.0042   0.0000   0.1920
 -13.000  -1.0888   0.02780   0.02241  -0.0442  1.0000  0.0200  -7.8715   0.0000   0.1931
 -12.800  -1.0799   0.02703   0.02159  -0.0429  1.0000  0.0202  -7.7379   0.0000   0.1943
 -12.600  -1.0707   0.02630   0.02080  -0.0415  1.0000  0.0204  -7.6040   0.0000   0.1955
 -12.400  -1.0614   0.02560   0.02004  -0.0401  1.0000  0.0206  -7.4701   0.0000   0.1969
 -12.200  -1.0519   0.02494   0.01932  -0.0385  1.0000  0.0208  -7.3369   0.0000   0.1983
 -12.000  -1.0425   0.02431   0.01863  -0.0368  1.0000  0.0211  -7.2048   0.0000   0.1999
 -11.800  -1.0333   0.02372   0.01799  -0.0350  1.0000  0.0213  -7.0757   0.0000   0.2016
 -11.600  -1.0244   0.02317   0.01737  -0.0329  1.0000  0.0215  -6.9577   0.0000   0.2036
 -11.400  -1.0150   0.02266   0.01680  -0.0309  1.0000  0.0217  -6.8377   0.0000   0.2055
 -11.200  -1.0041   0.02217   0.01625  -0.0292  1.0000  0.0220  -6.7122   0.0000   0.2072
 -11.000  -0.9934   0.02173   0.01575  -0.0273  1.0000  0.0221  -6.5866   0.0000   0.2091
 -10.800  -0.9829   0.02130   0.01528  -0.0253  1.0000  0.0223  -6.4626   0.0000   0.2110
 -10.600  -0.9766   0.02054   0.01449  -0.0227  1.0000  0.0226  -6.3649   0.0000   0.2137
 -10.400  -0.9681   0.02005   0.01399  -0.0204  1.0000  0.0230  -6.2484   0.0000   0.2162
 -10.200  -0.9585   0.01968   0.01360  -0.0182  1.0000  0.0233  -6.1242   0.0000   0.2185
 -10.000  -0.9486   0.01937   0.01328  -0.0160  1.0000  0.0236  -5.9978   0.0000   0.2209
  -9.800  -0.9385   0.01908   0.01298  -0.0138  1.0000  0.0239  -5.8721   0.0000   0.2232
  -9.600  -0.9257   0.01877   0.01265  -0.0122  0.9997  0.0243  -5.7375   0.0000   0.2250
  -9.400  -0.8996   0.01835   0.01221  -0.0133  0.9982  0.0248  -5.5561   0.0000   0.2236
  -9.200  -0.8738   0.01791   0.01173  -0.0143  0.9966  0.0253  -5.3805   0.0000   0.2222
  -9.000  -0.8479   0.01747   0.01125  -0.0152  0.9947  0.0258  -5.2082   0.0000   0.2207
  -8.800  -0.8212   0.01707   0.01080  -0.0164  0.9932  0.0262  -5.0344   0.0000   0.2189
  -8.600  -0.7966   0.01653   0.01023  -0.0171  0.9907  0.0267  -4.8734   0.0000   0.2175
  -8.400  -0.7714   0.01598   0.00970  -0.0180  0.9885  0.0273  -4.7085   0.0000   0.2157
  -8.200  -0.7440   0.01560   0.00931  -0.0193  0.9870  0.0279  -4.5341   0.0000   0.2133
  -8.000  -0.7187   0.01525   0.00896  -0.0201  0.9838  0.0286  -4.3690   0.0000   0.2114
  -7.800  -0.6915   0.01490   0.00860  -0.0212  0.9817  0.0293  -4.2015   0.0000   0.2087
  -7.600  -0.6657   0.01456   0.00824  -0.0220  0.9786  0.0300  -4.0416   0.0000   0.2064
  -7.400  -0.6405   0.01428   0.00792  -0.0227  0.9746  0.0307  -3.8880   0.0000   0.2042
  -7.200  -0.6174   0.01385   0.00749  -0.0230  0.9701  0.0316  -3.7543   0.0000   0.2025
  -7.000  -0.5938   0.01352   0.00718  -0.0233  0.9650  0.0325  -3.6155   0.0000   0.2006
  -6.800  -0.5717   0.01326   0.00692  -0.0232  0.9585  0.0333  -3.4833   0.0000   0.1992
  -6.600  -0.5497   0.01300   0.00664  -0.0231  0.9518  0.0342  -3.3547   0.0000   0.1979
  -6.400  -0.5279   0.01275   0.00636  -0.0229  0.9446  0.0351  -3.2293   0.0000   0.1966
  -6.200  -0.5075   0.01249   0.00607  -0.0224  0.9359  0.0360  -3.1101   0.0000   0.1959
  -6.000  -0.4881   0.01219   0.00577  -0.0218  0.9263  0.0371  -2.9935   0.0000   0.1956
  -5.800  -0.4679   0.01198   0.00555  -0.0212  0.9162  0.0382  -2.8745   0.0000   0.1949
  -5.600  -0.4475   0.01179   0.00533  -0.0207  0.9055  0.0394  -2.7571   0.0000   0.1941
  -5.400  -0.4269   0.01164   0.00513  -0.0202  0.8939  0.0407  -2.6410   0.0000   0.1931
  -5.200  -0.4073   0.01139   0.00487  -0.0195  0.8815  0.0423  -2.5296   0.0000   0.1925
  -5.000  -0.3869   0.01123   0.00467  -0.0190  0.8683  0.0438  -2.4162   0.0000   0.1914
  -4.800  -0.3664   0.01109   0.00448  -0.0185  0.8540  0.0454  -2.3090   0.0000   0.1901
  -4.600  -0.3463   0.01093   0.00426  -0.0179  0.8362  0.0471  -2.2100   0.0000   0.1889
  -4.400  -0.3262   0.01080   0.00407  -0.0173  0.8157  0.0491  -2.1109   0.0000   0.1876
  -4.200  -0.3056   0.01072   0.00390  -0.0167  0.7947  0.0513  -2.0123   0.0000   0.1857
  -4.000  -0.2852   0.01060   0.00373  -0.0162  0.7758  0.0539  -1.9154   0.0000   0.1835
  -3.600  -0.2434   0.01041   0.00343  -0.0154  0.7424  0.0600  -1.7235   0.0000   0.1768
  -3.400  -0.2224   0.01032   0.00330  -0.0151  0.7254  0.0637  -1.6294   0.0000   0.1723
  -3.200  -0.2014   0.01023   0.00317  -0.0147  0.7082  0.0680  -1.5370   0.0000   0.1669
  -3.000  -0.1804   0.01015   0.00305  -0.0144  0.6913  0.0735  -1.4506   0.0000   0.1601
  -2.800  -0.1595   0.01007   0.00293  -0.0140  0.6743  0.0808  -1.3681   0.0000   0.1515
  -2.600  -0.1385   0.00997   0.00282  -0.0137  0.6571  0.0907  -1.2869   0.0000   0.1403
  -2.400  -0.1178   0.00985   0.00270  -0.0133  0.6402  0.1064  -1.2074   0.0000   0.1255
  -2.200  -0.0986   0.00955   0.00253  -0.0128  0.6239  0.1521  -1.1323   0.0000   0.1081
  -2.000  -0.0858   0.00856   0.00224  -0.0114  0.6086  0.3444  -1.0712   0.0000   0.1045
  -1.800  -0.0672   0.00827   0.00215  -0.0108  0.5919  0.4125  -0.9988   0.0000   0.0759
  -1.600  -0.0475   0.00810   0.00208  -0.0102  0.5752  0.4610  -0.9313   0.0000   0.0185
  -1.400  -0.0275   0.00797   0.00204  -0.0097  0.5592  0.5021  -0.8639   0.0000  -0.1275
  -1.200  -0.0071   0.00789   0.00201  -0.0093  0.5432  0.5368  -0.7970   0.0000  -1.1186
  -1.000   0.0134   0.00783   0.00199  -0.0089  0.5267  0.5678  -0.7309   0.0000   0.9340
  -0.800   0.0341   0.00778   0.00198  -0.0085  0.5101  0.5967  -0.6984   0.0000   0.5029
  -0.600   0.0549   0.00776   0.00197  -0.0081  0.4939  0.6232  -0.7251   0.0000   0.3971
  -0.400   0.0757   0.00774   0.00197  -0.0077  0.4783  0.6484  -0.7520   0.0000   0.3494
  -0.200   0.0966   0.00774   0.00198  -0.0073  0.4623  0.6731  -0.7790   0.0000   0.3223
   0.000   0.1174   0.00775   0.00200  -0.0069  0.4461  0.6965  -0.8062   0.0000   0.3046
   0.200   0.1382   0.00777   0.00203  -0.0065  0.4301  0.7197  -0.8345   0.0000   0.2922
   0.400   0.1589   0.00779   0.00206  -0.0061  0.4151  0.7439  -0.8632   0.0000   0.2829
   0.600   0.1795   0.00781   0.00211  -0.0056  0.4005  0.7693  -0.8920   0.0000   0.2754
   0.800   0.2004   0.00786   0.00216  -0.0052  0.3855  0.7896  -0.9212   0.0000   0.2699
   1.000   0.2218   0.00793   0.00221  -0.0049  0.3706  0.8036  -0.9508   0.0000   0.2658
   1.200   0.2432   0.00802   0.00226  -0.0046  0.3562  0.8163  -0.9816   0.0000   0.2626
   1.400   0.2646   0.00810   0.00231  -0.0043  0.3431  0.8290  -1.0131   0.0000   0.2598
   1.600   0.2860   0.00820   0.00237  -0.0040  0.3307  0.8413  -1.0447   0.0000   0.2574
   2.000   0.3287   0.00840   0.00252  -0.0034  0.3073  0.8647  -1.1083   0.0000   0.2535
   2.200   0.3500   0.00852   0.00260  -0.0031  0.2970  0.8756  -1.1413   0.0000   0.2518
   2.400   0.3715   0.00862   0.00268  -0.0028  0.2878  0.8860  -1.1752   0.0000   0.2504
   2.600   0.3929   0.00873   0.00277  -0.0026  0.2797  0.8959  -1.2092   0.0000   0.2491
   2.800   0.4142   0.00886   0.00287  -0.0023  0.2720  0.9055  -1.2433   0.0000   0.2478
   3.000   0.4356   0.00897   0.00296  -0.0020  0.2648  0.9148  -1.2778   0.0000   0.2468
   3.200   0.4570   0.00910   0.00307  -0.0017  0.2587  0.9234  -1.3135   0.0000   0.2458
   3.400   0.4789   0.00923   0.00317  -0.0015  0.2530  0.9309  -1.3504   0.0000   0.2451
   3.600   0.5006   0.00937   0.00328  -0.0013  0.2479  0.9383  -1.3874   0.0000   0.2444
   3.800   0.5224   0.00949   0.00339  -0.0011  0.2430  0.9458  -1.4246   0.0000   0.2438
   4.000   0.5452   0.00966   0.00352  -0.0012  0.2382  0.9516  -1.4631   0.0000   0.2436
   4.200   0.5684   0.00978   0.00363  -0.0013  0.2342  0.9573  -1.5037   0.0000   0.2437
   4.400   0.5915   0.00992   0.00375  -0.0015  0.2302  0.9630  -1.5447   0.0000   0.2436
   4.600   0.6164   0.01011   0.00390  -0.0020  0.2264  0.9669  -1.5877   0.0000   0.2443
   4.800   0.6406   0.01023   0.00402  -0.0024  0.2229  0.9717  -1.6305   0.0000   0.2447
   5.000   0.6672   0.01039   0.00416  -0.0034  0.2191  0.9746  -1.6768   0.0000   0.2458
   5.200   0.6935   0.01059   0.00432  -0.0043  0.2157  0.9775  -1.7241   0.0000   0.2468
   5.400   0.7196   0.01072   0.00445  -0.0052  0.2128  0.9807  -1.7717   0.0000   0.2475
   5.600   0.7485   0.01088   0.00460  -0.0067  0.2094  0.9821  -1.8226   0.0000   0.2491
   5.800   0.7764   0.01107   0.00476  -0.0080  0.2061  0.9840  -1.8740   0.0000   0.2503
   6.000   0.8027   0.01125   0.00492  -0.0090  0.2034  0.9867  -1.9250   0.0000   0.2510
   6.200   0.8312   0.01139   0.00507  -0.0104  0.2006  0.9882  -1.9789   0.0000   0.2521
   6.400   0.8592   0.01155   0.00523  -0.0118  0.1975  0.9897  -2.0328   0.0000   0.2531
   6.600   0.8860   0.01176   0.00540  -0.0129  0.1946  0.9918  -2.0878   0.0000   0.2538
   6.800   0.9134   0.01192   0.00557  -0.0141  0.1922  0.9935  -2.1441   0.0000   0.2545
   7.000   0.9414   0.01206   0.00572  -0.0155  0.1894  0.9949  -2.2017   0.0000   0.2552
   7.200   0.9687   0.01224   0.00589  -0.0167  0.1866  0.9966  -2.2606   0.0000   0.2558
   7.400   0.9956   0.01247   0.00609  -0.0179  0.1839  0.9980  -2.3202   0.0000   0.2563
   7.600   1.0233   0.01261   0.00626  -0.0192  0.1816  0.9993  -2.3814   0.0000   0.2569
   7.800   1.0451   0.01276   0.00641  -0.0193  0.1792  1.0000  -2.4372   0.0000   0.2564
   8.000   1.0603   0.01290   0.00657  -0.0181  0.1770  1.0000  -2.4850   0.0000   0.2546
   8.200   1.0750   0.01308   0.00673  -0.0167  0.1749  1.0000  -2.5323   0.0000   0.2529
   8.400   1.0894   0.01327   0.00692  -0.0153  0.1729  1.0000  -2.5809   0.0000   0.2511
   8.600   1.1052   0.01339   0.00708  -0.0141  0.1710  1.0000  -2.6328   0.0000   0.2495
   8.800   1.1206   0.01355   0.00724  -0.0129  0.1688  1.0000  -2.6845   0.0000   0.2480
   9.000   1.1357   0.01372   0.00743  -0.0116  0.1667  1.0000  -2.7385   0.0000   0.2464
   9.200   1.1502   0.01393   0.00762  -0.0102  0.1646  1.0000  -2.7921   0.0000   0.2448
   9.400   1.1652   0.01413   0.00783  -0.0090  0.1626  1.0000  -2.8486   0.0000   0.2433
   9.600   1.1813   0.01428   0.00802  -0.0079  0.1605  1.0000  -2.9082   0.0000   0.2420
   9.800   1.1970   0.01446   0.00822  -0.0067  0.1583  1.0000  -2.9703   0.0000   0.2407
  10.000   1.2122   0.01468   0.00844  -0.0055  0.1562  1.0000  -3.0334   0.0000   0.2394
  10.200   1.2267   0.01494   0.00869  -0.0043  0.1540  1.0000  -3.0978   0.0000   0.2380
  10.400   1.2432   0.01513   0.00891  -0.0033  0.1520  1.0000  -3.1699   0.0000   0.2369
  10.600   1.2597   0.01533   0.00914  -0.0024  0.1497  1.0000  -3.2457   0.0000   0.2358
  10.800   1.2757   0.01556   0.00939  -0.0015  0.1474  1.0000  -3.3238   0.0000   0.2347
  11.000   1.2908   0.01585   0.00968  -0.0004  0.1450  1.0000  -3.4034   0.0000   0.2336
  11.200   1.3069   0.01610   0.00995   0.0005  0.1429  1.0000  -3.4890   0.0000   0.2325
  11.400   1.3233   0.01633   0.01022   0.0013  0.1405  1.0000  -3.5779   0.0000   0.2316
  11.600   1.3383   0.01660   0.01050   0.0023  0.1380  1.0000  -3.6674   0.0000   0.2305
  11.800   1.3511   0.01694   0.01084   0.0037  0.1356  1.0000  -3.7541   0.0000   0.2292
  12.000   1.3654   0.01721   0.01115   0.0049  0.1334  1.0000  -3.8456   0.0000   0.2280
  12.200   1.3799   0.01750   0.01147   0.0059  0.1308  1.0000  -3.9414   0.0000   0.2269
  12.400   1.3932   0.01785   0.01183   0.0071  0.1283  1.0000  -4.0373   0.0000   0.2258
  12.600   1.4054   0.01828   0.01226   0.0084  0.1259  1.0000  -4.1305   0.0000   0.2246
  12.800   1.4202   0.01859   0.01263   0.0093  0.1235  1.0000  -4.2321   0.0000   0.2236
  13.000   1.4336   0.01899   0.01305   0.0103  0.1208  1.0000  -4.3329   0.0000   0.2226
  13.200   1.4454   0.01949   0.01355   0.0114  0.1182  1.0000  -4.4332   0.0000   0.2215
  13.400   1.4584   0.01994   0.01404   0.0124  0.1159  1.0000  -4.5378   0.0000   0.2206
  13.600   1.4713   0.02040   0.01454   0.0133  0.1132  1.0000  -4.6433   0.0000   0.2197
  13.800   1.4824   0.02098   0.01514   0.0143  0.1105  1.0000  -4.7438   0.0000   0.2186
  14.000   1.4933   0.02159   0.01578   0.0153  0.1081  1.0000  -4.8439   0.0000   0.2177
  14.200   1.5053   0.02216   0.01639   0.0161  0.1054  1.0000  -4.9494   0.0000   0.2168
  14.400   1.5152   0.02287   0.01713   0.0171  0.1027  1.0000  -5.0539   0.0000   0.2158
  14.600   1.5242   0.02367   0.01795   0.0180  0.1002  1.0000  -5.1557   0.0000   0.2149
  14.800   1.5347   0.02439   0.01872   0.0187  0.0974  1.0000  -5.2635   0.0000   0.2141
  15.000   1.5427   0.02532   0.01967   0.0196  0.0946  1.0000  -5.3628   0.0000   0.2132
  15.200   1.5500   0.02632   0.02071   0.0203  0.0922  1.0000  -5.4597   0.0000   0.2123
  15.400   1.5584   0.02728   0.02172   0.0210  0.0896  1.0000  -5.5614   0.0000   0.2115
  15.600   1.5642   0.02848   0.02295   0.0216  0.0869  1.0000  -5.6531   0.0000   0.2107
  15.800   1.5693   0.02979   0.02429   0.0221  0.0845  1.0000  -5.7421   0.0000   0.2100
  16.000   1.5751   0.03109   0.02564   0.0225  0.0818  1.0000  -5.8341   0.0000   0.2093
  16.200   1.5776   0.03272   0.02731   0.0229  0.0791  1.0000  -5.9131   0.0000   0.2086
  16.400   1.5804   0.03439   0.02903   0.0231  0.0768  1.0000  -5.9980   0.0000   0.2080
  16.600   1.5828   0.03615   0.03084   0.0232  0.0744  1.0000  -6.0816   0.0000   0.2075
  16.800   1.5820   0.03829   0.03303   0.0232  0.0721  1.0000  -6.1510   0.0000   0.2070
  17.000   1.5810   0.04052   0.03533   0.0230  0.0702  1.0000  -6.2185   0.0000   0.2066
  17.200   1.5800   0.04282   0.03769   0.0227  0.0681  1.0000  -6.2855   0.0000   0.2062
  17.400   1.5754   0.04559   0.04052   0.0223  0.0661  1.0000  -6.3355   0.0000   0.2060
  17.600   1.5675   0.04883   0.04382   0.0215  0.0644  1.0000  -6.3686   0.0000   0.2058
  17.800   1.5630   0.05174   0.04682   0.0208  0.0627  1.0000  -6.4166   0.0000   0.2057
  18.000   1.5547   0.05520   0.05035   0.0198  0.0610  1.0000  -6.4454   0.0000   0.2057
  18.200   1.5427   0.05921   0.05445   0.0185  0.0595  1.0000  -6.4548   0.0000   0.2059
  18.400   1.5273   0.06375   0.05906   0.0170  0.0583  1.0000  -6.4450   0.0000   0.2062
  18.600   1.5146   0.06801   0.06342   0.0155  0.0571  1.0000  -6.4469   0.0000   0.2065
  18.800   1.4999   0.07263   0.06814   0.0138  0.0559  1.0000  -6.4366   0.0000   0.2070
  19.000   1.4821   0.07775   0.07335   0.0119  0.0548  1.0000  -6.4078   0.0000   0.2076
  19.200   1.4617   0.08330   0.07901   0.0097  0.0538  1.0000  -6.3628   0.0000   0.2084
  19.400   1.4393   0.08926   0.08506   0.0073  0.0530  1.0000  -6.3040   0.0000   0.2094
  19.600   1.4154   0.09549   0.09138   0.0047  0.0522  1.0000  -6.2341   0.0000   0.2106
  19.800   1.3967   0.10102   0.09700   0.0024  0.0513  1.0000  -6.1892   0.0000   0.2117
  20.000   1.3785   0.10657   0.10264  -0.0000  0.0504  1.0000  -6.1438   0.0000   0.2128
  20.200   1.3601   0.11221   0.10836  -0.0026  0.0494  1.0000  -6.0942   0.0000   0.2142
  20.400   1.3414   0.11792   0.11415  -0.0052  0.0483  1.0000  -6.0401   0.0000   0.2156
  20.600   1.3228   0.12373   0.12002  -0.0080  0.0473  1.0000  -5.9822   0.0000   0.2173
  21.000   1.2951   0.13402   0.13043  -0.0132  0.0452  1.0000  -5.9134   0.0000   0.2204
  21.200   1.2843   0.13873   0.13520  -0.0156  0.0440  1.0000  -5.8932   0.0000   0.2219
  21.400   1.2730   0.14354   0.14005  -0.0183  0.0429  1.0000  -5.8678   0.0000   0.2235
  21.600   1.2621   0.14836   0.14490  -0.0209  0.0417  1.0000  -5.8419   0.0000   0.2253
  21.800   1.2523   0.15305   0.14963  -0.0237  0.0406  1.0000  -5.8191   0.0000   0.2271
  22.000   1.2479   0.15683   0.15346  -0.0259  0.0396  1.0000  -5.8306   0.0000   0.2284
  22.200   1.2423   0.16083   0.15751  -0.0283  0.0384  1.0000  -5.8324   0.0000   0.2299
  22.400   1.2362   0.16499   0.16169  -0.0309  0.0373  1.0000  -5.8278   0.0000   0.2316
  22.600   1.2300   0.16919   0.16591  -0.0336  0.0363  1.0000  -5.8203   0.0000   0.2334
  22.800   1.2260   0.17293   0.16968  -0.0360  0.0353  1.0000  -5.8305   0.0000   0.2349
  23.000   1.2241   0.17638   0.17317  -0.0383  0.0343  1.0000  -5.8547   0.0000   0.2363
  23.200   1.2219   0.17985   0.17668  -0.0406  0.0333  1.0000  -5.8763   0.0000   0.2377
  23.400   1.2182   0.18368   0.18053  -0.0432  0.0323  1.0000  -5.8836   0.0000   0.2394
  23.600   1.2152   0.18738   0.18423  -0.0458  0.0314  1.0000  -5.8952   0.0000   0.2411
  23.800   1.2139   0.19071   0.18759  -0.0482  0.0305  1.0000  -5.9189   0.0000   0.2426
  24.000   1.2133   0.19402   0.19095  -0.0506  0.0297  1.0000  -5.9457   0.0000   0.2440
  24.200   1.2129   0.19724   0.19420  -0.0529  0.0288  1.0000  -5.9743   0.0000   0.2454
  24.400   1.2115   0.20070   0.19769  -0.0555  0.0279  1.0000  -5.9923   0.0000   0.2470
  24.600   1.2104   0.20411   0.20110  -0.0581  0.0271  1.0000  -6.0115   0.0000   0.2486
  24.800   1.2112   0.20707   0.20405  -0.0604  0.0263  1.0000  -6.0468   0.0000   0.2499
  25.000   1.2117   0.21019   0.20722  -0.0628  0.0257  1.0000  -6.0764   0.0000   0.2513


