xflr5 v6.47

 Calculated polar for: NACA 23015

 1 1 Reynolds number fixed          Mach number fixed         

 xtrf =   1.000 (top)        1.000 (bottom)
 Mach =   0.003     Re =     1.200 e 6     Ncrit =   7.000

  alpha     CL        CD       CDp       Cm    Top Xtr Bot Xtr   Cpmin    Chinge    XCp    
 ------- -------- --------- --------- -------- ------- ------- -------- --------- ---------
 -15.000  -1.2756   0.02748   0.02267  -0.0469  1.0000  0.0153  -10.0929   0.0000   0.1939
 -14.800  -1.2707   0.02631   0.02143  -0.0458  1.0000  0.0155  -9.9714   0.0000   0.1950
 -14.600  -1.2635   0.02535   0.02043  -0.0447  1.0000  0.0157  -9.8326   0.0000   0.1961
 -14.400  -1.2548   0.02453   0.01957  -0.0435  1.0000  0.0159  -9.6833   0.0000   0.1971
 -14.200  -1.2451   0.02381   0.01881  -0.0424  1.0000  0.0161  -9.5279   0.0000   0.1981
 -14.000  -1.2348   0.02314   0.01811  -0.0412  1.0000  0.0162  -9.3698   0.0000   0.1991
 -13.800  -1.2240   0.02253   0.01746  -0.0399  1.0000  0.0164  -9.2098   0.0000   0.2001
 -13.600  -1.2128   0.02196   0.01686  -0.0387  1.0000  0.0165  -9.0479   0.0000   0.2012
 -13.400  -1.2014   0.02143   0.01630  -0.0374  1.0000  0.0167  -8.8854   0.0000   0.2023
 -13.200  -1.1899   0.02093   0.01577  -0.0360  1.0000  0.0168  -8.7233   0.0000   0.2035
 -13.000  -1.1784   0.02046   0.01526  -0.0345  1.0000  0.0170  -8.5626   0.0000   0.2047
 -12.800  -1.1672   0.02002   0.01479  -0.0328  1.0000  0.0172  -8.4042   0.0000   0.2061
 -12.600  -1.1564   0.01961   0.01435  -0.0310  1.0000  0.0173  -8.2487   0.0000   0.2077
 -12.400  -1.1454   0.01922   0.01393  -0.0292  1.0000  0.0175  -8.0937   0.0000   0.2093
 -12.200  -1.1330   0.01884   0.01351  -0.0276  1.0000  0.0177  -7.9327   0.0000   0.2107
 -12.000  -1.1206   0.01847   0.01312  -0.0260  1.0000  0.0179  -7.7820   0.0000   0.2122
 -11.800  -1.1087   0.01814   0.01275  -0.0242  1.0000  0.0180  -7.6354   0.0000   0.2138
 -11.600  -1.0971   0.01782   0.01241  -0.0223  1.0000  0.0181  -7.4905   0.0000   0.2156
 -11.400  -1.0856   0.01752   0.01208  -0.0204  1.0000  0.0183  -7.3471   0.0000   0.2174
 -11.200  -1.0744   0.01725   0.01178  -0.0184  1.0000  0.0184  -7.2057   0.0000   0.2193
 -11.000  -1.0635   0.01699   0.01149  -0.0162  1.0000  0.0185  -7.0662   0.0000   0.2214
 -10.800  -1.0494   0.01644   0.01091  -0.0150  0.9994  0.0188  -6.9246   0.0000   0.2226
 -10.600  -1.0258   0.01594   0.01039  -0.0156  0.9982  0.0193  -6.7396   0.0000   0.2219
 -10.400  -1.0013   0.01554   0.00999  -0.0163  0.9971  0.0196  -6.5482   0.0000   0.2210
 -10.200  -0.9767   0.01520   0.00964  -0.0170  0.9956  0.0200  -6.3571   0.0000   0.2201
 -10.000  -0.9515   0.01487   0.00930  -0.0178  0.9942  0.0203  -6.1654   0.0000   0.2190
  -9.800  -0.9257   0.01456   0.00898  -0.0187  0.9931  0.0207  -5.9739   0.0000   0.2177
  -9.600  -0.9008   0.01426   0.00868  -0.0194  0.9912  0.0211  -5.7885   0.0000   0.2165
  -9.400  -0.8753   0.01398   0.00838  -0.0202  0.9895  0.0215  -5.6023   0.0000   0.2152
  -9.200  -0.8492   0.01371   0.00810  -0.0211  0.9880  0.0219  -5.4165   0.0000   0.2135
  -9.000  -0.8245   0.01346   0.00783  -0.0217  0.9854  0.0222  -5.2386   0.0000   0.2123
  -8.800  -0.8013   0.01311   0.00747  -0.0220  0.9821  0.0226  -5.0724   0.0000   0.2113
  -8.600  -0.7789   0.01274   0.00709  -0.0221  0.9783  0.0232  -4.9112   0.0000   0.2104
  -8.400  -0.7564   0.01246   0.00682  -0.0222  0.9737  0.0237  -4.7485   0.0000   0.2097
  -8.200  -0.7349   0.01222   0.00658  -0.0221  0.9682  0.0242  -4.5903   0.0000   0.2092
  -8.000  -0.7133   0.01200   0.00635  -0.0219  0.9625  0.0247  -4.4338   0.0000   0.2086
  -7.800  -0.6926   0.01180   0.00612  -0.0215  0.9558  0.0252  -4.2827   0.0000   0.2084
  -7.600  -0.6723   0.01160   0.00591  -0.0210  0.9480  0.0257  -4.1354   0.0000   0.2084
  -7.400  -0.6520   0.01142   0.00570  -0.0205  0.9398  0.0261  -3.9988   0.0000   0.2083
  -7.200  -0.6318   0.01124   0.00548  -0.0200  0.9310  0.0265  -3.8661   0.0000   0.2083
  -7.000  -0.6124   0.01098   0.00521  -0.0193  0.9215  0.0274  -3.7393   0.0000   0.2085
  -6.800  -0.5922   0.01080   0.00501  -0.0188  0.9114  0.0282  -3.6082   0.0000   0.2084
  -6.600  -0.5716   0.01065   0.00484  -0.0183  0.9005  0.0290  -3.4771   0.0000   0.2082
  -6.400  -0.5509   0.01052   0.00466  -0.0179  0.8889  0.0298  -3.3475   0.0000   0.2079
  -6.200  -0.5300   0.01040   0.00450  -0.0175  0.8766  0.0305  -3.2197   0.0000   0.2075
  -6.000  -0.5092   0.01026   0.00431  -0.0170  0.8635  0.0312  -3.0952   0.0000   0.2070
  -5.800  -0.4886   0.01009   0.00411  -0.0166  0.8497  0.0324  -2.9731   0.0000   0.2066
  -5.600  -0.4677   0.00997   0.00396  -0.0162  0.8349  0.0334  -2.8501   0.0000   0.2060
  -5.400  -0.4466   0.00988   0.00380  -0.0158  0.8188  0.0344  -2.7286   0.0000   0.2052
  -5.200  -0.4256   0.00981   0.00366  -0.0154  0.7987  0.0354  -2.6094   0.0000   0.2045
  -5.000  -0.4050   0.00973   0.00350  -0.0150  0.7747  0.0366  -2.4938   0.0000   0.2038
  -4.800  -0.3841   0.00966   0.00336  -0.0146  0.7511  0.0381  -2.3805   0.0000   0.2029
  -4.600  -0.3628   0.00960   0.00324  -0.0143  0.7320  0.0397  -2.2739   0.0000   0.2015
  -4.400  -0.3412   0.00955   0.00313  -0.0141  0.7153  0.0410  -2.1687   0.0000   0.1997
  -4.200  -0.3198   0.00945   0.00300  -0.0138  0.6986  0.0431  -2.0658   0.0000   0.1977
  -4.000  -0.2982   0.00940   0.00289  -0.0136  0.6816  0.0450  -1.9635   0.0000   0.1953
  -3.800  -0.2765   0.00934   0.00279  -0.0134  0.6652  0.0469  -1.8629   0.0000   0.1924
  -3.600  -0.2549   0.00928   0.00269  -0.0131  0.6486  0.0495  -1.7638   0.0000   0.1891
  -3.400  -0.2330   0.00925   0.00260  -0.0130  0.6316  0.0520  -1.6658   0.0000   0.1850
  -3.000  -0.1896   0.00915   0.00243  -0.0126  0.5995  0.0593  -1.4783   0.0000   0.1738
  -2.800  -0.1677   0.00910   0.00236  -0.0124  0.5833  0.0636  -1.3925   0.0000   0.1659
  -2.600  -0.1459   0.00906   0.00228  -0.0122  0.5666  0.0688  -1.3081   0.0000   0.1556
  -2.400  -0.1242   0.00902   0.00221  -0.0121  0.5502  0.0757  -1.2252   0.0000   0.1417
  -2.200  -0.1024   0.00897   0.00215  -0.0119  0.5348  0.0850  -1.1436   0.0000   0.1219
  -2.000  -0.0808   0.00890   0.00208  -0.0117  0.5193  0.0985  -1.0640   0.0000   0.0920
  -1.800  -0.0597   0.00878   0.00201  -0.0115  0.5032  0.1231  -0.9875   0.0000   0.0431
  -1.600  -0.0446   0.00799   0.00175  -0.0104  0.4887  0.2858  -0.9291   0.0000  -0.0005
  -1.400  -0.0254   0.00769   0.00166  -0.0099  0.4738  0.3604  -0.8635   0.0000  -0.1638
  -1.200  -0.0051   0.00751   0.00161  -0.0096  0.4596  0.4105  -0.7966   0.0000  -1.7283
  -1.000   0.0158   0.00740   0.00158  -0.0093  0.4447  0.4488  -0.7300   0.0000   0.8546
  -0.800   0.0368   0.00732   0.00156  -0.0090  0.4293  0.4859  -0.7011   0.0000   0.4984
  -0.600   0.0581   0.00727   0.00155  -0.0088  0.4142  0.5157  -0.7281   0.0000   0.4007
  -0.400   0.0795   0.00723   0.00155  -0.0086  0.4000  0.5443  -0.7554   0.0000   0.3554
  -0.200   0.1010   0.00721   0.00155  -0.0084  0.3863  0.5714  -0.7830   0.0000   0.3293
   0.000   0.1225   0.00719   0.00156  -0.0081  0.3723  0.5966  -0.8107   0.0000   0.3124
   0.200   0.1439   0.00719   0.00158  -0.0079  0.3581  0.6208  -0.8397   0.0000   0.3004
   0.600   0.1869   0.00720   0.00163  -0.0075  0.3321  0.6687  -0.8986   0.0000   0.2847
   0.800   0.2083   0.00721   0.00166  -0.0072  0.3205  0.6933  -0.9282   0.0000   0.2791
   1.000   0.2294   0.00721   0.00170  -0.0069  0.3090  0.7212  -0.9578   0.0000   0.2743
   1.200   0.2509   0.00724   0.00175  -0.0067  0.2977  0.7442  -0.9890   0.0000   0.2705
   1.400   0.2728   0.00729   0.00179  -0.0066  0.2875  0.7583  -1.0210   0.0000   0.2677
   1.600   0.2949   0.00734   0.00184  -0.0064  0.2789  0.7715  -1.0532   0.0000   0.2653
   1.800   0.3168   0.00739   0.00189  -0.0063  0.2709  0.7845  -1.0856   0.0000   0.2632
   2.000   0.3388   0.00745   0.00194  -0.0062  0.2631  0.7973  -1.1182   0.0000   0.2613
   2.200   0.3608   0.00751   0.00200  -0.0060  0.2563  0.8100  -1.1523   0.0000   0.2597
   2.600   0.4047   0.00762   0.00213  -0.0057  0.2444  0.8345  -1.2216   0.0000   0.2569
   2.800   0.4266   0.00770   0.00220  -0.0056  0.2392  0.8463  -1.2565   0.0000   0.2556
   3.000   0.4486   0.00775   0.00227  -0.0054  0.2347  0.8577  -1.2917   0.0000   0.2545
   3.200   0.4705   0.00782   0.00234  -0.0053  0.2300  0.8687  -1.3284   0.0000   0.2535
   3.400   0.4923   0.00791   0.00242  -0.0051  0.2258  0.8795  -1.3655   0.0000   0.2525
   3.600   0.5143   0.00797   0.00250  -0.0050  0.2225  0.8897  -1.4031   0.0000   0.2516
   3.800   0.5360   0.00805   0.00259  -0.0048  0.2189  0.8994  -1.4406   0.0000   0.2507
   4.000   0.5576   0.00815   0.00268  -0.0046  0.2152  0.9084  -1.4782   0.0000   0.2498
   4.200   0.5795   0.00822   0.00277  -0.0044  0.2124  0.9170  -1.5181   0.0000   0.2490
   4.400   0.6011   0.00831   0.00286  -0.0042  0.2092  0.9254  -1.5580   0.0000   0.2482
   4.600   0.6225   0.00842   0.00296  -0.0040  0.2062  0.9332  -1.5979   0.0000   0.2474
   4.800   0.6441   0.00851   0.00306  -0.0037  0.2036  0.9402  -1.6382   0.0000   0.2467
   5.000   0.6658   0.00860   0.00316  -0.0036  0.2010  0.9471  -1.6796   0.0000   0.2460
   5.200   0.6874   0.00871   0.00326  -0.0034  0.1982  0.9536  -1.7224   0.0000   0.2454
   5.400   0.7093   0.00884   0.00337  -0.0033  0.1954  0.9590  -1.7658   0.0000   0.2449
   5.600   0.7311   0.00895   0.00348  -0.0031  0.1931  0.9648  -1.8093   0.0000   0.2444
   5.800   0.7544   0.00906   0.00359  -0.0033  0.1908  0.9692  -1.8547   0.0000   0.2443
   6.000   0.7772   0.00918   0.00370  -0.0034  0.1881  0.9737  -1.9020   0.0000   0.2442
   6.200   0.8012   0.00932   0.00383  -0.0039  0.1854  0.9771  -1.9509   0.0000   0.2444
   6.400   0.8246   0.00946   0.00396  -0.0041  0.1830  0.9808  -1.9994   0.0000   0.2444
   6.600   0.8507   0.00958   0.00408  -0.0050  0.1809  0.9829  -2.0518   0.0000   0.2450
   6.800   0.8758   0.00972   0.00421  -0.0057  0.1783  0.9855  -2.1054   0.0000   0.2454
   7.000   0.9012   0.00987   0.00435  -0.0065  0.1757  0.9877  -2.1597   0.0000   0.2459
   7.200   0.9282   0.01005   0.00450  -0.0076  0.1731  0.9887  -2.2163   0.0000   0.2467
   7.400   0.9554   0.01017   0.00464  -0.0088  0.1711  0.9899  -2.2758   0.0000   0.2474
   7.600   0.9817   0.01032   0.00478  -0.0098  0.1686  0.9913  -2.3352   0.0000   0.2480
   7.800   1.0073   0.01048   0.00493  -0.0106  0.1661  0.9931  -2.3939   0.0000   0.2483
   8.000   1.0338   0.01068   0.00510  -0.0117  0.1633  0.9939  -2.4567   0.0000   0.2489
   8.200   1.0607   0.01081   0.00525  -0.0128  0.1614  0.9950  -2.5209   0.0000   0.2494
   8.400   1.0869   0.01096   0.00540  -0.0138  0.1591  0.9961  -2.5859   0.0000   0.2498
   8.600   1.1126   0.01114   0.00557  -0.0148  0.1565  0.9974  -2.6525   0.0000   0.2501
   8.800   1.1385   0.01135   0.00577  -0.0158  0.1537  0.9982  -2.7204   0.0000   0.2504
   9.000   1.1649   0.01149   0.00592  -0.0168  0.1518  0.9991  -2.7924   0.0000   0.2507
   9.200   1.1909   0.01165   0.00609  -0.0178  0.1493  1.0000  -2.8658   0.0000   0.2509
   9.400   1.2059   0.01181   0.00624  -0.0165  0.1471  1.0000  -2.9240   0.0000   0.2494
   9.600   1.2205   0.01200   0.00642  -0.0151  0.1448  1.0000  -2.9837   0.0000   0.2478
   9.800   1.2360   0.01214   0.00658  -0.0139  0.1430  1.0000  -3.0470   0.0000   0.2463
  10.000   1.2517   0.01228   0.00674  -0.0127  0.1410  1.0000  -3.1142   0.0000   0.2449
  10.200   1.2672   0.01245   0.00691  -0.0115  0.1386  1.0000  -3.1843   0.0000   0.2436
  10.400   1.2823   0.01266   0.00710  -0.0102  0.1362  1.0000  -3.2571   0.0000   0.2422
  10.600   1.2981   0.01284   0.00730  -0.0091  0.1341  1.0000  -3.3345   0.0000   0.2409
  10.800   1.3143   0.01301   0.00748  -0.0081  0.1319  1.0000  -3.4172   0.0000   0.2397
  11.000   1.3302   0.01321   0.00768  -0.0070  0.1293  1.0000  -3.5029   0.0000   0.2385
  11.200   1.3457   0.01347   0.00792  -0.0060  0.1265  1.0000  -3.5900   0.0000   0.2374
  11.400   1.3626   0.01366   0.00814  -0.0051  0.1244  1.0000  -3.6845   0.0000   0.2364
  11.600   1.3794   0.01388   0.00837  -0.0043  0.1217  1.0000  -3.7818   0.0000   0.2354
  11.800   1.3954   0.01415   0.00863  -0.0034  0.1189  1.0000  -3.8780   0.0000   0.2344
  12.000   1.4116   0.01441   0.00890  -0.0026  0.1164  1.0000  -3.9805   0.0000   0.2334
  12.200   1.4281   0.01465   0.00915  -0.0018  0.1138  1.0000  -4.0861   0.0000   0.2325
  12.400   1.4435   0.01495   0.00945  -0.0008  0.1109  1.0000  -4.1895   0.0000   0.2315
  12.600   1.4578   0.01526   0.00977   0.0003  0.1083  1.0000  -4.2907   0.0000   0.2304
  12.800   1.4721   0.01554   0.01006   0.0015  0.1058  1.0000  -4.3982   0.0000   0.2292
  13.000   1.4852   0.01588   0.01040   0.0028  0.1029  1.0000  -4.5039   0.0000   0.2280
  13.200   1.4979   0.01625   0.01078   0.0041  0.1003  1.0000  -4.6095   0.0000   0.2268
  13.400   1.5117   0.01659   0.01114   0.0051  0.0977  1.0000  -4.7192   0.0000   0.2257
  13.600   1.5240   0.01702   0.01157   0.0064  0.0946  1.0000  -4.8250   0.0000   0.2246
  13.800   1.5364   0.01746   0.01202   0.0075  0.0919  1.0000  -4.9319   0.0000   0.2235
  14.000   1.5491   0.01790   0.01247   0.0086  0.0892  1.0000  -5.0464   0.0000   0.2224
  14.200   1.5600   0.01845   0.01302   0.0098  0.0862  1.0000  -5.1562   0.0000   0.2213
  14.400   1.5717   0.01897   0.01356   0.0109  0.0835  1.0000  -5.2700   0.0000   0.2203
  14.600   1.5822   0.01957   0.01417   0.0120  0.0804  1.0000  -5.3802   0.0000   0.2192
  14.800   1.5916   0.02025   0.01486   0.0132  0.0775  1.0000  -5.4870   0.0000   0.2181
  15.000   1.6019   0.02091   0.01554   0.0142  0.0747  1.0000  -5.5979   0.0000   0.2171
  15.200   1.6100   0.02172   0.01636   0.0153  0.0719  1.0000  -5.7007   0.0000   0.2161
  15.400   1.6190   0.02250   0.01717   0.0163  0.0696  1.0000  -5.8079   0.0000   0.2151
  15.600   1.6267   0.02340   0.01809   0.0172  0.0668  1.0000  -5.9104   0.0000   0.2141
  15.800   1.6324   0.02447   0.01917   0.0182  0.0641  1.0000  -6.0079   0.0000   0.2131
  16.000   1.6395   0.02549   0.02022   0.0190  0.0616  1.0000  -6.1156   0.0000   0.2122
  16.200   1.6435   0.02678   0.02153   0.0198  0.0589  1.0000  -6.2104   0.0000   0.2113
  16.400   1.6485   0.02805   0.02284   0.0205  0.0567  1.0000  -6.3093   0.0000   0.2105
  16.600   1.6523   0.02947   0.02429   0.0210  0.0544  1.0000  -6.4036   0.0000   0.2097
  16.800   1.6536   0.03118   0.02602   0.0215  0.0522  1.0000  -6.4864   0.0000   0.2089
  17.000   1.6569   0.03275   0.02765   0.0218  0.0506  1.0000  -6.5782   0.0000   0.2083
  17.200   1.6580   0.03460   0.02954   0.0219  0.0487  1.0000  -6.6601   0.0000   0.2077
  17.400   1.6563   0.03679   0.03177   0.0220  0.0470  1.0000  -6.7288   0.0000   0.2071
  17.600   1.6552   0.03900   0.03404   0.0219  0.0456  1.0000  -6.7996   0.0000   0.2067
  17.800   1.6536   0.04131   0.03641   0.0216  0.0442  1.0000  -6.8676   0.0000   0.2063
  18.000   1.6492   0.04402   0.03919   0.0212  0.0428  1.0000  -6.9212   0.0000   0.2059
  18.200   1.6417   0.04718   0.04240   0.0206  0.0415  1.0000  -6.9592   0.0000   0.2057
  18.400   1.6340   0.05044   0.04574   0.0198  0.0405  1.0000  -6.9947   0.0000   0.2056
  18.600   1.6265   0.05376   0.04914   0.0188  0.0395  1.0000  -7.0299   0.0000   0.2055
  18.800   1.6161   0.05754   0.05299   0.0177  0.0386  1.0000  -7.0494   0.0000   0.2056
  19.000   1.6024   0.06179   0.05734   0.0163  0.0377  1.0000  -7.0506   0.0000   0.2058
  19.200   1.5855   0.06654   0.06218   0.0147  0.0370  1.0000  -7.0331   0.0000   0.2061
  19.400   1.5661   0.07175   0.06749   0.0128  0.0364  1.0000  -7.0000   0.0000   0.2066
  19.800   1.5231   0.08299   0.07893   0.0086  0.0355  1.0000  -6.9027   0.0000   0.2080
  20.000   1.5009   0.08886   0.08491   0.0063  0.0352  1.0000  -6.8454   0.0000   0.2088
  20.200   1.4770   0.09504   0.09120   0.0038  0.0349  1.0000  -6.7756   0.0000   0.2099
  20.400   1.4526   0.10134   0.09761   0.0011  0.0345  1.0000  -6.6994   0.0000   0.2111
  20.600   1.4286   0.10771   0.10409  -0.0016  0.0342  1.0000  -6.6214   0.0000   0.2125
  20.800   1.4049   0.11414   0.11061  -0.0045  0.0338  1.0000  -6.5405   0.0000   0.2140
  21.000   1.3826   0.12038   0.11694  -0.0074  0.0334  1.0000  -6.4642   0.0000   0.2156
  21.200   1.3621   0.12645   0.12309  -0.0103  0.0328  1.0000  -6.3945   0.0000   0.2173
  21.400   1.3429   0.13243   0.12914  -0.0133  0.0322  1.0000  -6.3279   0.0000   0.2191
  21.600   1.3250   0.13827   0.13504  -0.0164  0.0316  1.0000  -6.2654   0.0000   0.2210
  22.000   1.2988   0.14848   0.14537  -0.0219  0.0303  1.0000  -6.1909   0.0000   0.2245
  22.200   1.2911   0.15273   0.14967  -0.0244  0.0297  1.0000  -6.1882   0.0000   0.2259
  22.400   1.2818   0.15734   0.15433  -0.0271  0.0289  1.0000  -6.1717   0.0000   0.2277
  22.600   1.2729   0.16193   0.15896  -0.0299  0.0282  1.0000  -6.1554   0.0000   0.2295
  22.800   1.2649   0.16639   0.16346  -0.0326  0.0275  1.0000  -6.1430   0.0000   0.2313
  23.000   1.2559   0.17112   0.16823  -0.0356  0.0267  1.0000  -6.1184   0.0000   0.2333
  23.200   1.2527   0.17470   0.17184  -0.0380  0.0261  1.0000  -6.1378   0.0000   0.2347
  23.400   1.2493   0.17836   0.17555  -0.0404  0.0255  1.0000  -6.1532   0.0000   0.2362
  23.600   1.2467   0.18190   0.17912  -0.0428  0.0249  1.0000  -6.1732   0.0000   0.2377
  23.800   1.2434   0.18561   0.18287  -0.0454  0.0242  1.0000  -6.1853   0.0000   0.2393
  24.000   1.2389   0.18961   0.18689  -0.0482  0.0236  1.0000  -6.1852   0.0000   0.2411
  24.200   1.2354   0.19345   0.19075  -0.0509  0.0229  1.0000  -6.1910   0.0000   0.2429
  24.400   1.2314   0.19739   0.19472  -0.0538  0.0222  1.0000  -6.1901   0.0000   0.2448
  24.600   1.2326   0.20029   0.19765  -0.0559  0.0218  1.0000  -6.2340   0.0000   0.2459
  24.800   1.2331   0.20330   0.20069  -0.0582  0.0213  1.0000  -6.2710   0.0000   0.2472
  25.000   1.2318   0.20675   0.20418  -0.0608  0.0208  1.0000  -6.2887   0.0000   0.2488


