xflr5 v6.47

 Calculated polar for: NACA 23015

 1 1 Reynolds number fixed          Mach number fixed         

 xtrf =   1.000 (top)        1.000 (bottom)
 Mach =   0.003     Re =     0.200 e 6     Ncrit =   7.000

  alpha     CL        CD       CDp       Cm    Top Xtr Bot Xtr   Cpmin    Chinge    XCp    
 ------- -------- --------- --------- -------- ------- ------- -------- --------- ---------
 -15.000  -0.3399   0.14541   0.14172  -0.0127  1.0000  0.0502  -1.2804   0.0000   0.1973
 -14.800  -0.3488   0.14315   0.13945  -0.0149  1.0000  0.0516  -1.3925   0.0000   0.1919
 -14.600  -0.3659   0.14040   0.13669  -0.0180  1.0000  0.0520  -1.5728   0.0000   0.1853
 -14.400  -0.3601   0.13823   0.13454  -0.0180  1.0000  0.0522  -1.5509   0.0000   0.1843
 -14.200  -0.3492   0.13665   0.13296  -0.0175  1.0000  0.0526  -1.4796   0.0000   0.1845
 -14.000  -0.3427   0.13506   0.13137  -0.0174  1.0000  0.0532  -1.4433   0.0000   0.1837
 -13.800  -0.3395   0.13341   0.12972  -0.0178  1.0000  0.0539  -1.4320   0.0000   0.1823
 -13.600  -0.3390   0.13169   0.12800  -0.0183  1.0000  0.0548  -1.4405   0.0000   0.1807
 -13.400  -0.3416   0.12988   0.12619  -0.0190  1.0000  0.0558  -1.4700   0.0000   0.1790
 -13.200  -0.3532   0.12728   0.12359  -0.0207  1.0000  0.0573  -1.5705   0.0000   0.1758
 -13.000  -0.3773   0.12204   0.11834  -0.0248  1.0000  0.0580  -1.7955   0.0000   0.1689
 -12.600  -0.6484   0.08755   0.08338  -0.0355  1.0000  0.0356  -3.9155   0.0000   0.1774
 -12.400  -0.6666   0.08105   0.07681  -0.0399  1.0000  0.0354  -4.0390   0.0000   0.1728
 -12.200  -0.6875   0.07489   0.07056  -0.0441  1.0000  0.0352  -4.1610   0.0000   0.1692
 -12.000  -0.7101   0.06935   0.06490  -0.0474  1.0000  0.0351  -4.2775   0.0000   0.1672
 -11.800  -0.7334   0.06450   0.05989  -0.0494  1.0000  0.0350  -4.3867   0.0000   0.1672
 -11.600  -0.7568   0.06029   0.05551  -0.0501  1.0000  0.0349  -4.4889   0.0000   0.1690
 -11.400  -0.7801   0.05663   0.05165  -0.0493  1.0000  0.0350  -4.5854   0.0000   0.1726
 -11.200  -0.8031   0.05343   0.04824  -0.0469  1.0000  0.0350  -4.6773   0.0000   0.1778
 -11.000  -0.8244   0.05071   0.04528  -0.0434  1.0000  0.0351  -4.7567   0.0000   0.1841
 -10.800  -0.8424   0.04780   0.04207  -0.0398  1.0000  0.0353  -4.8369   0.0000   0.1898
 -10.600  -0.8572   0.04497   0.03887  -0.0360  1.0000  0.0356  -4.9093   0.0000   0.1953
 -10.400  -0.8594   0.04288   0.03660  -0.0335  1.0000  0.0359  -4.8883   0.0000   0.1986
 -10.200  -0.8532   0.04153   0.03521  -0.0317  1.0000  0.0362  -4.8017   0.0000   0.2006
 -10.000  -0.8451   0.04047   0.03412  -0.0300  1.0000  0.0364  -4.7022   0.0000   0.2025
  -9.800  -0.8384   0.03933   0.03291  -0.0281  1.0000  0.0368  -4.6186   0.0000   0.2048
  -9.600  -0.8325   0.03810   0.03158  -0.0259  1.0000  0.0371  -4.5546   0.0000   0.2073
  -9.400  -0.8268   0.03680   0.03016  -0.0236  1.0000  0.0374  -4.4983   0.0000   0.2101
  -9.200  -0.8211   0.03547   0.02868  -0.0213  1.0000  0.0379  -4.4472   0.0000   0.2130
  -9.000  -0.8151   0.03411   0.02715  -0.0189  1.0000  0.0383  -4.3993   0.0000   0.2159
  -8.800  -0.8085   0.03274   0.02559  -0.0165  1.0000  0.0388  -4.3532   0.0000   0.2189
  -8.600  -0.8013   0.03139   0.02403  -0.0141  1.0000  0.0394  -4.3082   0.0000   0.2218
  -8.400  -0.7938   0.03012   0.02251  -0.0117  1.0000  0.0402  -4.2647   0.0000   0.2249
  -8.200  -0.7855   0.02902   0.02116  -0.0094  1.0000  0.0410  -4.2110   0.0000   0.2279
  -8.000  -0.7733   0.02829   0.02048  -0.0079  1.0000  0.0416  -4.1003   0.0000   0.2298
  -7.800  -0.7615   0.02774   0.01994  -0.0063  1.0000  0.0423  -3.9941   0.0000   0.2319
  -7.600  -0.7497   0.02716   0.01933  -0.0046  1.0000  0.0431  -3.8954   0.0000   0.2342
  -7.400  -0.7379   0.02646   0.01855  -0.0029  1.0000  0.0439  -3.8082   0.0000   0.2366
  -7.200  -0.7257   0.02568   0.01766  -0.0012  1.0000  0.0447  -3.7284   0.0000   0.2390
  -7.000  -0.6990   0.02469   0.01645  -0.0022  0.9977  0.0459  -3.6185   0.0000   0.2376
  -6.800  -0.6695   0.02373   0.01546  -0.0039  0.9947  0.0470  -3.4803   0.0000   0.2349
  -6.600  -0.6393   0.02304   0.01481  -0.0058  0.9916  0.0482  -3.3294   0.0000   0.2318
  -6.400  -0.6088   0.02243   0.01416  -0.0076  0.9881  0.0500  -3.1940   0.0000   0.2283
  -6.200  -0.5789   0.02180   0.01337  -0.0092  0.9841  0.0520  -3.0801   0.0000   0.2250
  -6.000  -0.5483   0.02105   0.01273  -0.0111  0.9808  0.0537  -2.9436   0.0000   0.2205
  -5.800  -0.5192   0.02044   0.01214  -0.0126  0.9761  0.0555  -2.8198   0.0000   0.2165
  -5.600  -0.4873   0.01982   0.01145  -0.0146  0.9728  0.0576  -2.6985   0.0000   0.2108
  -5.400  -0.4594   0.01916   0.01086  -0.0159  0.9673  0.0596  -2.5769   0.0000   0.2061
  -5.200  -0.4267   0.01863   0.01035  -0.0181  0.9641  0.0627  -2.4440   0.0000   0.1981
  -5.000  -0.3990   0.01807   0.00979  -0.0192  0.9578  0.0654  -2.3290   0.0000   0.1922
  -4.800  -0.3705   0.01752   0.00931  -0.0206  0.9522  0.0684  -2.2092   0.0000   0.1848
  -4.600  -0.3422   0.01699   0.00876  -0.0218  0.9464  0.0717  -2.1034   0.0000   0.1766
  -4.400  -0.3175   0.01650   0.00833  -0.0222  0.9382  0.0755  -2.0035   0.0000   0.1700
  -4.200  -0.2930   0.01602   0.00788  -0.0226  0.9298  0.0798  -1.9080   0.0000   0.1627
  -4.000  -0.2688   0.01559   0.00745  -0.0229  0.9208  0.0849  -1.8137   0.0000   0.1546
  -3.800  -0.2461   0.01513   0.00703  -0.0228  0.9110  0.0904  -1.7225   0.0000   0.1467
  -3.600  -0.2242   0.01470   0.00662  -0.0226  0.8998  0.0977  -1.6340   0.0000   0.1386
  -3.400  -0.2033   0.01429   0.00623  -0.0221  0.8872  0.1074  -1.5488   0.0000   0.1305
  -3.200  -0.1836   0.01383   0.00583  -0.0213  0.8728  0.1225  -1.4682   0.0000   0.1225
  -3.000  -0.1681   0.01296   0.00532  -0.0201  0.8577  0.1908  -1.4036   0.0000   0.1191
  -2.800  -0.1613   0.01157   0.00497  -0.0175  0.8424  0.4308  -1.3535   0.0000   0.1306
  -2.600  -0.1454   0.01114   0.00482  -0.0159  0.8270  0.5126  -1.2845   0.0000   0.1295
  -2.400  -0.1278   0.01088   0.00473  -0.0145  0.8108  0.5651  -1.2120   0.0000   0.1248
  -2.200  -0.1090   0.01071   0.00465  -0.0134  0.7949  0.6057  -1.1378   0.0000   0.1153
  -2.000  -0.0897   0.01059   0.00458  -0.0123  0.7789  0.6407  -1.0634   0.0000   0.1001
  -1.800  -0.0701   0.01050   0.00453  -0.0113  0.7626  0.6709  -0.9915   0.0000   0.0746
  -1.600  -0.0502   0.01045   0.00448  -0.0103  0.7462  0.6986  -0.9238   0.0000   0.0280
  -1.400  -0.0302   0.01042   0.00446  -0.0094  0.7295  0.7239  -0.8567   0.0000  -0.0823
  -1.200  -0.0102   0.01042   0.00445  -0.0084  0.7120  0.7478  -0.7905   0.0000  -0.6316
  -1.000   0.0100   0.01045   0.00446  -0.0075  0.6945  0.7707  -0.7252   0.0000   1.0371
  -0.800   0.0303   0.01050   0.00449  -0.0066  0.6771  0.7923  -0.6924   0.0000   0.4728
  -0.600   0.0502   0.01059   0.00453  -0.0055  0.6597  0.8149  -0.7185   0.0000   0.3605
  -0.400   0.0710   0.01071   0.00461  -0.0046  0.6417  0.8341  -0.7454   0.0000   0.3132
  -0.200   0.0919   0.01082   0.00466  -0.0038  0.6236  0.8503  -0.7723   0.0000   0.2886
   0.000   0.1135   0.01095   0.00469  -0.0033  0.6052  0.8622  -0.7999   0.0000   0.2751
   0.200   0.1355   0.01108   0.00472  -0.0029  0.5870  0.8730  -0.8288   0.0000   0.2667
   0.400   0.1578   0.01122   0.00477  -0.0025  0.5685  0.8834  -0.8584   0.0000   0.2611
   0.600   0.1802   0.01138   0.00482  -0.0023  0.5497  0.8936  -0.8882   0.0000   0.2572
   0.800   0.2025   0.01154   0.00487  -0.0020  0.5310  0.9035  -0.9182   0.0000   0.2541
   1.000   0.2256   0.01172   0.00494  -0.0019  0.5124  0.9127  -0.9489   0.0000   0.2525
   1.200   0.2515   0.01192   0.00503  -0.0024  0.4927  0.9197  -0.9831   0.0000   0.2535
   1.400   0.2761   0.01212   0.00511  -0.0027  0.4737  0.9275  -1.0167   0.0000   0.2535
   1.600   0.3003   0.01233   0.00519  -0.0029  0.4551  0.9357  -1.0502   0.0000   0.2534
   1.800   0.3292   0.01256   0.00530  -0.0042  0.4352  0.9409  -1.0876   0.0000   0.2563
   2.000   0.3558   0.01278   0.00540  -0.0051  0.4170  0.9473  -1.1239   0.0000   0.2575
   2.200   0.3845   0.01301   0.00551  -0.0064  0.3992  0.9528  -1.1632   0.0000   0.2598
   2.400   0.4148   0.01324   0.00563  -0.0081  0.3818  0.9574  -1.2041   0.0000   0.2625
   2.600   0.4441   0.01348   0.00574  -0.0096  0.3660  0.9626  -1.2444   0.0000   0.2646
   2.800   0.4749   0.01371   0.00587  -0.0115  0.3518  0.9667  -1.2864   0.0000   0.2670
   3.000   0.5032   0.01393   0.00599  -0.0128  0.3394  0.9723  -1.3282   0.0000   0.2683
   3.200   0.5351   0.01415   0.00612  -0.0150  0.3277  0.9757  -1.3735   0.0000   0.2706
   3.400   0.5641   0.01437   0.00625  -0.0166  0.3178  0.9806  -1.4164   0.0000   0.2718
   3.600   0.5953   0.01459   0.00638  -0.0186  0.3089  0.9842  -1.4618   0.0000   0.2736
   3.800   0.6256   0.01479   0.00652  -0.0205  0.3004  0.9883  -1.5086   0.0000   0.2749
   4.000   0.6564   0.01499   0.00667  -0.0225  0.2929  0.9920  -1.5561   0.0000   0.2763
   4.200   0.6874   0.01520   0.00680  -0.0245  0.2862  0.9953  -1.6043   0.0000   0.2776
   4.400   0.7186   0.01539   0.00697  -0.0266  0.2797  0.9987  -1.6533   0.0000   0.2788
   4.600   0.7409   0.01558   0.00710  -0.0269  0.2746  1.0000  -1.6955   0.0000   0.2779
   4.800   0.7568   0.01575   0.00724  -0.0259  0.2702  1.0000  -1.7307   0.0000   0.2756
   5.000   0.7726   0.01591   0.00739  -0.0249  0.2658  1.0000  -1.7660   0.0000   0.2733
   5.200   0.7879   0.01613   0.00755  -0.0238  0.2621  1.0000  -1.8015   0.0000   0.2711
   5.400   0.8036   0.01633   0.00775  -0.0227  0.2584  1.0000  -1.8381   0.0000   0.2689
   5.600   0.8193   0.01652   0.00794  -0.0216  0.2545  1.0000  -1.8756   0.0000   0.2668
   5.800   0.8346   0.01675   0.00812  -0.0204  0.2511  1.0000  -1.9134   0.0000   0.2647
   6.000   0.8501   0.01700   0.00834  -0.0193  0.2478  1.0000  -1.9512   0.0000   0.2627
   6.200   0.8657   0.01720   0.00857  -0.0182  0.2443  1.0000  -1.9894   0.0000   0.2608
   6.400   0.8812   0.01744   0.00880  -0.0170  0.2411  1.0000  -2.0297   0.0000   0.2589
   6.600   0.8968   0.01774   0.00903  -0.0159  0.2383  1.0000  -2.0705   0.0000   0.2571
   6.800   0.9123   0.01797   0.00931  -0.0148  0.2351  1.0000  -2.1106   0.0000   0.2553
   7.000   0.9279   0.01821   0.00957  -0.0136  0.2319  1.0000  -2.1516   0.0000   0.2535
   7.200   0.9436   0.01848   0.00982  -0.0125  0.2291  1.0000  -2.1951   0.0000   0.2518
   7.400   0.9597   0.01883   0.01010  -0.0115  0.2267  1.0000  -2.2396   0.0000   0.2503
   7.600   0.9751   0.01908   0.01043  -0.0103  0.2236  1.0000  -2.2822   0.0000   0.2487
   7.800   0.9907   0.01935   0.01073  -0.0092  0.2206  1.0000  -2.3272   0.0000   0.2472
   8.000   1.0067   0.01964   0.01101  -0.0082  0.2180  1.0000  -2.3743   0.0000   0.2457
   8.200   1.0233   0.02001   0.01131  -0.0073  0.2157  1.0000  -2.4228   0.0000   0.2445
   8.400   1.0386   0.02030   0.01170  -0.0061  0.2129  1.0000  -2.4694   0.0000   0.2430
   8.600   1.0541   0.02060   0.01205  -0.0050  0.2100  1.0000  -2.5185   0.0000   0.2416
   8.800   1.0700   0.02091   0.01236  -0.0040  0.2075  1.0000  -2.5691   0.0000   0.2403
   9.000   1.0867   0.02128   0.01268  -0.0032  0.2052  1.0000  -2.6233   0.0000   0.2392
   9.200   1.1023   0.02164   0.01312  -0.0022  0.2027  1.0000  -2.6756   0.0000   0.2380
   9.400   1.1175   0.02197   0.01353  -0.0011  0.1999  1.0000  -2.7289   0.0000   0.2367
   9.600   1.1334   0.02231   0.01389  -0.0002  0.1973  1.0000  -2.7861   0.0000   0.2356
   9.800   1.1501   0.02267   0.01422   0.0006  0.1951  1.0000  -2.8470   0.0000   0.2347
  10.000   1.1662   0.02309   0.01467   0.0014  0.1928  1.0000  -2.9078   0.0000   0.2337
  10.200   1.1806   0.02346   0.01517   0.0025  0.1900  1.0000  -2.9681   0.0000   0.2324
  10.400   1.1959   0.02383   0.01558   0.0035  0.1874  1.0000  -3.0329   0.0000   0.2313
  10.600   1.2120   0.02420   0.01594   0.0043  0.1852  1.0000  -3.1034   0.0000   0.2304
  10.800   1.2285   0.02465   0.01637   0.0049  0.1830  1.0000  -3.1780   0.0000   0.2296
  11.000   1.2410   0.02507   0.01695   0.0063  0.1803  1.0000  -3.2448   0.0000   0.2283
  11.200   1.2548   0.02547   0.01743   0.0074  0.1777  1.0000  -3.3194   0.0000   0.2271
  11.400   1.2696   0.02586   0.01783   0.0083  0.1754  1.0000  -3.3991   0.0000   0.2262
  11.600   1.2862   0.02631   0.01821   0.0089  0.1733  1.0000  -3.4874   0.0000   0.2255
  11.800   1.2957   0.02680   0.01889   0.0105  0.1707  1.0000  -3.5567   0.0000   0.2239
  12.000   1.3067   0.02726   0.01945   0.0119  0.1682  1.0000  -3.6356   0.0000   0.2226
  12.200   1.3180   0.02767   0.01989   0.0133  0.1659  1.0000  -3.7172   0.0000   0.2212
  12.400   1.3311   0.02810   0.02029   0.0144  0.1638  1.0000  -3.8050   0.0000   0.2202
  12.600   1.3383   0.02869   0.02101   0.0162  0.1615  1.0000  -3.8777   0.0000   0.2185
  12.800   1.3453   0.02928   0.02172   0.0180  0.1589  1.0000  -3.9528   0.0000   0.2169
  13.000   1.3543   0.02981   0.02230   0.0194  0.1566  1.0000  -4.0351   0.0000   0.2156
  13.200   1.3651   0.03032   0.02281   0.0205  0.1545  1.0000  -4.1240   0.0000   0.2145
  13.400   1.3722   0.03106   0.02363   0.0219  0.1522  1.0000  -4.2004   0.0000   0.2132
  13.600   1.3771   0.03187   0.02459   0.0233  0.1496  1.0000  -4.2721   0.0000   0.2118
  13.800   1.3840   0.03261   0.02540   0.0245  0.1473  1.0000  -4.3545   0.0000   0.2106
  14.000   1.3925   0.03331   0.02609   0.0255  0.1452  1.0000  -4.4434   0.0000   0.2096
  14.200   1.3980   0.03427   0.02714   0.0265  0.1429  1.0000  -4.5207   0.0000   0.2085
  14.400   1.4006   0.03542   0.02844   0.0276  0.1403  1.0000  -4.5877   0.0000   0.2074
  14.600   1.4053   0.03647   0.02957   0.0284  0.1379  1.0000  -4.6634   0.0000   0.2065
  14.800   1.4116   0.03745   0.03056   0.0290  0.1359  1.0000  -4.7456   0.0000   0.2056
  15.000   1.4144   0.03880   0.03201   0.0297  0.1336  1.0000  -4.8135   0.0000   0.2048
  15.200   1.4147   0.04041   0.03377   0.0302  0.1311  1.0000  -4.8745   0.0000   0.2040
  15.400   1.4169   0.04190   0.03534   0.0305  0.1288  1.0000  -4.9455   0.0000   0.2033
  15.600   1.4210   0.04327   0.03671   0.0307  0.1267  1.0000  -5.0247   0.0000   0.2028
  15.800   1.4202   0.04522   0.03878   0.0307  0.1245  1.0000  -5.0818   0.0000   0.2022
  16.000   1.4175   0.04744   0.04116   0.0306  0.1220  1.0000  -5.1304   0.0000   0.2018
  16.200   1.4167   0.04951   0.04331   0.0303  0.1198  1.0000  -5.1876   0.0000   0.2015
  16.400   1.4181   0.05136   0.04516   0.0300  0.1179  1.0000  -5.2551   0.0000   0.2012
  16.600   1.4126   0.05415   0.04809   0.0294  0.1157  1.0000  -5.2893   0.0000   0.2011
  16.800   1.4060   0.05718   0.05127   0.0285  0.1134  1.0000  -5.3173   0.0000   0.2011
  17.000   1.4014   0.06002   0.05418   0.0275  0.1112  1.0000  -5.3550   0.0000   0.2011
  17.200   1.4005   0.06239   0.05654   0.0268  0.1093  1.0000  -5.4101   0.0000   0.2011
  17.400   1.3897   0.06628   0.06060   0.0253  0.1072  1.0000  -5.4149   0.0000   0.2015
  17.600   1.3781   0.07038   0.06485   0.0235  0.1051  1.0000  -5.4148   0.0000   0.2021
  17.800   1.3694   0.07415   0.06870   0.0219  0.1031  1.0000  -5.4277   0.0000   0.2026
  18.000   1.3668   0.07697   0.07150   0.0208  0.1012  1.0000  -5.4716   0.0000   0.2029
  18.200   1.3507   0.08204   0.07673   0.0184  0.0993  1.0000  -5.4434   0.0000   0.2039
  18.400   1.3328   0.08750   0.08234   0.0158  0.0973  1.0000  -5.4049   0.0000   0.2051
  18.600   1.3195   0.09228   0.08721   0.0135  0.0953  1.0000  -5.3898   0.0000   0.2062
  18.800   1.3177   0.09515   0.09005   0.0122  0.0934  1.0000  -5.4376   0.0000   0.2066
  19.000   1.2959   0.10151   0.09656   0.0091  0.0915  1.0000  -5.3692   0.0000   0.2084
  19.200   1.2703   0.10864   0.10384   0.0054  0.0896  1.0000  -5.2749   0.0000   0.2106
  19.400   1.2554   0.11400   0.10927   0.0026  0.0876  1.0000  -5.2395   0.0000   0.2122
  19.600   1.2663   0.11473   0.10990   0.0024  0.0855  1.0000  -5.3565   0.0000   0.2119
  19.800   1.2262   0.12482   0.12022  -0.0031  0.0836  1.0000  -5.1602   0.0000   0.2158
  20.000   1.1899   0.13448   0.13002  -0.0085  0.0814  1.0000  -4.9767   0.0000   0.2200
  20.200   1.1966   0.13606   0.13158  -0.0093  0.0793  1.0000  -5.0633   0.0000   0.2202
  20.400   1.1941   0.13940   0.13493  -0.0112  0.0774  1.0000  -5.0892   0.0000   0.2212
  20.600   1.0748   0.16703   0.16284  -0.0273  0.0724  1.0000  -4.2836   0.0000   0.2375
  20.800   1.1307   0.15817   0.15391  -0.0223  0.0723  1.0000  -4.7245   0.0000   0.2309
  21.000   1.1782   0.15137   0.14696  -0.0183  0.0711  1.0000  -5.0987   0.0000   0.2259
  21.200   1.0497   0.18261   0.17849  -0.0368  0.0649  1.0000  -4.1413   0.0000   0.2462
  21.400   1.0867   0.17721   0.17307  -0.0340  0.0649  1.0000  -4.4665   0.0000   0.2414
  21.600   1.1344   0.16970   0.16548  -0.0297  0.0646  1.0000  -4.8708   0.0000   0.2353
  22.000   0.9504   0.22668   0.22257  -0.0620  0.0472  1.0000  -3.0378   0.0000   0.2773
  22.200   0.9617   0.22681   0.22272  -0.0626  0.0467  1.0000  -3.1565   0.0000   0.2764
  22.400   0.9733   0.22677   0.22270  -0.0632  0.0463  1.0000  -3.2830   0.0000   0.2755
  23.200   0.9551   0.25284   0.24879  -0.0784  0.0382  1.0000  -2.7191   0.0000   0.2924
  23.400   0.9609   0.25517   0.25113  -0.0802  0.0371  1.0000  -2.7493   0.0000   0.2932
  23.600   0.9697   0.25601   0.25198  -0.0813  0.0364  1.0000  -2.8415   0.0000   0.2929
  23.800   0.9797   0.25614   0.25214  -0.0821  0.0360  1.0000  -2.9643   0.0000   0.2921
  24.000   0.9727   0.26507   0.26105  -0.0869  0.0345  1.0000  -2.7069   0.0000   0.2979
  24.200   0.9736   0.27008   0.26607  -0.0900  0.0338  1.0000  -2.6067   0.0000   0.3008
  24.400   0.9769   0.27394   0.26995  -0.0925  0.0332  1.0000  -2.5576   0.0000   0.3028
  24.600   0.9824   0.27655   0.27257  -0.0945  0.0324  1.0000  -2.5641   0.0000   0.3038
  24.800   0.9906   0.27750   0.27354  -0.0957  0.0316  1.0000  -2.6481   0.0000   0.3035
  25.000   1.0010   0.27704   0.27311  -0.0962  0.0311  1.0000  -2.7990   0.0000   0.3021


