xflr5 v6.47

 Calculated polar for: NACA 23015

 1 1 Reynolds number fixed          Mach number fixed         

 xtrf =   1.000 (top)        1.000 (bottom)
 Mach =   0.003     Re =     0.950 e 6     Ncrit =   7.000

  alpha     CL        CD       CDp       Cm    Top Xtr Bot Xtr   Cpmin    Chinge    XCp    
 ------- -------- --------- --------- -------- ------- ------- -------- --------- ---------
 -15.000  -1.2298   0.03149   0.02675  -0.0494  1.0000  0.0165  -9.7191   0.0000   0.1903
 -14.800  -1.2225   0.03039   0.02560  -0.0487  1.0000  0.0167  -9.5828   0.0000   0.1910
 -14.600  -1.2149   0.02936   0.02451  -0.0480  1.0000  0.0168  -9.4453   0.0000   0.1917
 -14.400  -1.2070   0.02837   0.02347  -0.0471  1.0000  0.0170  -9.3076   0.0000   0.1925
 -14.200  -1.1989   0.02744   0.02248  -0.0462  1.0000  0.0171  -9.1690   0.0000   0.1934
 -14.000  -1.1903   0.02657   0.02155  -0.0451  1.0000  0.0173  -9.0284   0.0000   0.1944
 -13.800  -1.1813   0.02575   0.02067  -0.0440  1.0000  0.0174  -8.8858   0.0000   0.1953
 -13.600  -1.1718   0.02499   0.01986  -0.0429  1.0000  0.0176  -8.7413   0.0000   0.1964
 -13.400  -1.1620   0.02429   0.01910  -0.0416  1.0000  0.0177  -8.5949   0.0000   0.1974
 -13.200  -1.1517   0.02363   0.01838  -0.0403  1.0000  0.0179  -8.4468   0.0000   0.1985
 -13.000  -1.1411   0.02302   0.01772  -0.0390  1.0000  0.0180  -8.2972   0.0000   0.1997
 -12.800  -1.1302   0.02245   0.01711  -0.0376  1.0000  0.0182  -8.1465   0.0000   0.2009
 -12.600  -1.1191   0.02193   0.01654  -0.0361  1.0000  0.0183  -7.9951   0.0000   0.2022
 -12.400  -1.1080   0.02146   0.01601  -0.0345  1.0000  0.0184  -7.8439   0.0000   0.2036
 -12.200  -1.0971   0.02103   0.01554  -0.0328  1.0000  0.0185  -7.6942   0.0000   0.2051
 -12.000  -1.0930   0.02027   0.01473  -0.0300  1.0000  0.0188  -7.5940   0.0000   0.2079
 -11.800  -1.0845   0.01968   0.01411  -0.0278  1.0000  0.0190  -7.4719   0.0000   0.2099
 -11.600  -1.0744   0.01922   0.01363  -0.0259  1.0000  0.0193  -7.3386   0.0000   0.2118
 -11.400  -1.0639   0.01883   0.01323  -0.0239  1.0000  0.0195  -7.2019   0.0000   0.2137
 -11.200  -1.0530   0.01849   0.01286  -0.0219  1.0000  0.0197  -7.0638   0.0000   0.2156
 -11.000  -1.0422   0.01817   0.01253  -0.0199  1.0000  0.0199  -6.9265   0.0000   0.2176
 -10.800  -1.0316   0.01787   0.01221  -0.0177  1.0000  0.0202  -6.7915   0.0000   0.2197
 -10.600  -1.0214   0.01758   0.01190  -0.0156  1.0000  0.0204  -6.6588   0.0000   0.2219
 -10.400  -1.0088   0.01728   0.01158  -0.0138  0.9998  0.0207  -6.5181   0.0000   0.2237
 -10.200  -0.9837   0.01689   0.01116  -0.0147  0.9986  0.0210  -6.3288   0.0000   0.2227
 -10.000  -0.9584   0.01651   0.01075  -0.0155  0.9974  0.0214  -6.1410   0.0000   0.2215
  -9.800  -0.9333   0.01615   0.01037  -0.0163  0.9958  0.0217  -5.9556   0.0000   0.2204
  -9.600  -0.9074   0.01584   0.01003  -0.0172  0.9943  0.0221  -5.7682   0.0000   0.2191
  -9.400  -0.8814   0.01548   0.00965  -0.0182  0.9930  0.0224  -5.5843   0.0000   0.2176
  -9.200  -0.8583   0.01493   0.00909  -0.0187  0.9906  0.0230  -5.4186   0.0000   0.2166
  -9.000  -0.8327   0.01456   0.00872  -0.0196  0.9889  0.0235  -5.2394   0.0000   0.2151
  -8.800  -0.8059   0.01423   0.00840  -0.0207  0.9875  0.0240  -5.0574   0.0000   0.2131
  -8.600  -0.7812   0.01394   0.00809  -0.0213  0.9847  0.0245  -4.8853   0.0000   0.2116
  -8.400  -0.7562   0.01364   0.00779  -0.0219  0.9818  0.0250  -4.7153   0.0000   0.2100
  -8.200  -0.7320   0.01336   0.00749  -0.0224  0.9785  0.0256  -4.5505   0.0000   0.2085
  -8.000  -0.7085   0.01310   0.00721  -0.0227  0.9741  0.0260  -4.3906   0.0000   0.2072
  -7.800  -0.6858   0.01287   0.00695  -0.0228  0.9690  0.0264  -4.2349   0.0000   0.2062
  -7.600  -0.6646   0.01248   0.00656  -0.0226  0.9636  0.0272  -4.0902   0.0000   0.2055
  -7.400  -0.6441   0.01221   0.00629  -0.0222  0.9565  0.0278  -3.9540   0.0000   0.2052
  -7.200  -0.6235   0.01199   0.00607  -0.0218  0.9490  0.0285  -3.8200   0.0000   0.2048
  -7.000  -0.6029   0.01180   0.00586  -0.0213  0.9410  0.0293  -3.6875   0.0000   0.2045
  -6.800  -0.5824   0.01162   0.00565  -0.0209  0.9324  0.0300  -3.5573   0.0000   0.2042
  -6.600  -0.5620   0.01146   0.00546  -0.0204  0.9231  0.0307  -3.4290   0.0000   0.2039
  -6.400  -0.5423   0.01122   0.00518  -0.0197  0.9128  0.0315  -3.3073   0.0000   0.2039
  -6.200  -0.5224   0.01101   0.00496  -0.0191  0.9019  0.0325  -3.1842   0.0000   0.2037
  -6.000  -0.5019   0.01085   0.00477  -0.0186  0.8903  0.0334  -3.0605   0.0000   0.2033
  -5.800  -0.4812   0.01071   0.00459  -0.0182  0.8779  0.0344  -2.9382   0.0000   0.2027
  -5.600  -0.4604   0.01059   0.00441  -0.0177  0.8647  0.0353  -2.8175   0.0000   0.2020
  -5.400  -0.4399   0.01043   0.00421  -0.0173  0.8506  0.0364  -2.7002   0.0000   0.2013
  -5.200  -0.4192   0.01028   0.00403  -0.0168  0.8353  0.0377  -2.5829   0.0000   0.2005
  -5.000  -0.3985   0.01019   0.00388  -0.0164  0.8165  0.0392  -2.4665   0.0000   0.1996
  -4.800  -0.3777   0.01014   0.00373  -0.0159  0.7943  0.0405  -2.3549   0.0000   0.1986
  -4.600  -0.3573   0.01004   0.00356  -0.0154  0.7716  0.0423  -2.2528   0.0000   0.1976
  -4.400  -0.3363   0.00995   0.00342  -0.0150  0.7518  0.0440  -2.1496   0.0000   0.1960
  -4.200  -0.3149   0.00989   0.00330  -0.0147  0.7348  0.0458  -2.0475   0.0000   0.1939
  -4.000  -0.2938   0.00980   0.00316  -0.0144  0.7181  0.0479  -1.9476   0.0000   0.1916
  -3.800  -0.2724   0.00974   0.00305  -0.0141  0.7013  0.0503  -1.8481   0.0000   0.1888
  -3.600  -0.2509   0.00967   0.00293  -0.0139  0.6845  0.0530  -1.7501   0.0000   0.1852
  -3.400  -0.2295   0.00960   0.00283  -0.0136  0.6679  0.0563  -1.6535   0.0000   0.1810
  -3.200  -0.2080   0.00955   0.00273  -0.0134  0.6507  0.0598  -1.5586   0.0000   0.1759
  -3.000  -0.1864   0.00950   0.00264  -0.0131  0.6335  0.0639  -1.4688   0.0000   0.1695
  -2.800  -0.1649   0.00944   0.00255  -0.0129  0.6173  0.0690  -1.3841   0.0000   0.1614
  -2.600  -0.1434   0.00939   0.00246  -0.0127  0.6011  0.0756  -1.3007   0.0000   0.1508
  -2.400  -0.1219   0.00933   0.00238  -0.0125  0.5844  0.0846  -1.2187   0.0000   0.1365
  -2.200  -0.1006   0.00925   0.00230  -0.0122  0.5676  0.0974  -1.1385   0.0000   0.1164
  -2.000  -0.0796   0.00912   0.00221  -0.0119  0.5517  0.1207  -1.0605   0.0000   0.0869
  -1.800  -0.0650   0.00828   0.00193  -0.0108  0.5377  0.2848  -0.9970   0.0000   0.0692
  -1.600  -0.0464   0.00793   0.00183  -0.0102  0.5221  0.3654  -0.9314   0.0000   0.0127
  -1.400  -0.0264   0.00774   0.00177  -0.0098  0.5060  0.4186  -0.8642   0.0000  -0.1446
  -1.200  -0.0059   0.00762   0.00173  -0.0095  0.4899  0.4596  -0.7970   0.0000  -1.4435
  -1.000   0.0149   0.00752   0.00171  -0.0091  0.4749  0.4973  -0.7305   0.0000   0.8830
  -0.800   0.0360   0.00746   0.00169  -0.0089  0.4598  0.5284  -0.7003   0.0000   0.5001
  -0.600   0.0571   0.00742   0.00168  -0.0086  0.4442  0.5574  -0.7272   0.0000   0.4000
  -0.400   0.0782   0.00740   0.00168  -0.0083  0.4286  0.5849  -0.7543   0.0000   0.3538
  -0.200   0.0995   0.00738   0.00169  -0.0080  0.4135  0.6104  -0.7816   0.0000   0.3273
   0.000   0.1208   0.00737   0.00170  -0.0078  0.3994  0.6347  -0.8092   0.0000   0.3101
   0.400   0.1633   0.00738   0.00174  -0.0072  0.3706  0.6826  -0.8672   0.0000   0.2890
   0.600   0.1845   0.00740   0.00177  -0.0069  0.3563  0.7064  -0.8964   0.0000   0.2820
   0.800   0.2054   0.00741   0.00181  -0.0066  0.3431  0.7331  -0.9257   0.0000   0.2762
   1.000   0.2265   0.00743   0.00186  -0.0062  0.3310  0.7576  -0.9552   0.0000   0.2714
   1.200   0.2482   0.00749   0.00190  -0.0060  0.3191  0.7730  -0.9865   0.0000   0.2680
   1.400   0.2699   0.00755   0.00195  -0.0058  0.3075  0.7862  -1.0182   0.0000   0.2651
   1.600   0.2916   0.00763   0.00200  -0.0056  0.2965  0.7991  -1.0501   0.0000   0.2627
   1.800   0.3133   0.00769   0.00206  -0.0054  0.2867  0.8119  -1.0823   0.0000   0.2606
   2.000   0.3352   0.00776   0.00212  -0.0052  0.2785  0.8244  -1.1147   0.0000   0.2587
   2.200   0.3569   0.00783   0.00219  -0.0050  0.2706  0.8365  -1.1483   0.0000   0.2571
   2.400   0.3786   0.00791   0.00226  -0.0048  0.2629  0.8483  -1.1826   0.0000   0.2556
   2.600   0.4003   0.00798   0.00233  -0.0046  0.2564  0.8597  -1.2171   0.0000   0.2542
   2.800   0.4219   0.00808   0.00241  -0.0044  0.2501  0.8707  -1.2517   0.0000   0.2530
   3.000   0.4438   0.00815   0.00249  -0.0042  0.2452  0.8813  -1.2867   0.0000   0.2519
   3.200   0.4654   0.00824   0.00258  -0.0040  0.2400  0.8916  -1.3229   0.0000   0.2508
   3.400   0.4871   0.00833   0.00266  -0.0038  0.2355  0.9014  -1.3598   0.0000   0.2498
   3.600   0.5087   0.00842   0.00275  -0.0036  0.2311  0.9104  -1.3969   0.0000   0.2489
   3.800   0.5300   0.00854   0.00285  -0.0033  0.2269  0.9190  -1.4339   0.0000   0.2479
   4.000   0.5518   0.00862   0.00295  -0.0031  0.2237  0.9271  -1.4716   0.0000   0.2471
   4.400   0.5948   0.00885   0.00315  -0.0026  0.2165  0.9420  -1.5505   0.0000   0.2456
   4.600   0.6167   0.00896   0.00326  -0.0025  0.2135  0.9485  -1.5908   0.0000   0.2450
   4.800   0.6384   0.00906   0.00336  -0.0023  0.2106  0.9553  -1.6312   0.0000   0.2444
   5.000   0.6612   0.00919   0.00348  -0.0024  0.2076  0.9603  -1.6735   0.0000   0.2443
   5.200   0.6835   0.00935   0.00361  -0.0024  0.2045  0.9656  -1.7168   0.0000   0.2440
   5.400   0.7073   0.00945   0.00372  -0.0027  0.2020  0.9701  -1.7620   0.0000   0.2441
   5.600   0.7312   0.00958   0.00383  -0.0030  0.1992  0.9741  -1.8078   0.0000   0.2443
   5.800   0.7561   0.00973   0.00397  -0.0036  0.1964  0.9773  -1.8550   0.0000   0.2447
   6.000   0.7803   0.00989   0.00411  -0.0041  0.1936  0.9809  -1.9036   0.0000   0.2450
   6.200   0.8073   0.01001   0.00424  -0.0052  0.1912  0.9827  -1.9559   0.0000   0.2460
   6.400   0.8337   0.01016   0.00437  -0.0061  0.1885  0.9849  -2.0079   0.0000   0.2467
   6.600   0.8594   0.01032   0.00452  -0.0070  0.1859  0.9872  -2.0603   0.0000   0.2473
   6.800   0.8871   0.01050   0.00468  -0.0083  0.1832  0.9883  -2.1169   0.0000   0.2483
   7.000   0.9148   0.01063   0.00482  -0.0095  0.1808  0.9895  -2.1740   0.0000   0.2492
   7.200   0.9416   0.01078   0.00496  -0.0106  0.1783  0.9911  -2.2307   0.0000   0.2498
   7.400   0.9674   0.01095   0.00512  -0.0115  0.1757  0.9930  -2.2889   0.0000   0.2502
   7.600   0.9944   0.01114   0.00530  -0.0127  0.1731  0.9940  -2.3491   0.0000   0.2509
   7.800   1.0216   0.01127   0.00544  -0.0139  0.1709  0.9952  -2.4105   0.0000   0.2514
   8.000   1.0482   0.01143   0.00560  -0.0150  0.1685  0.9965  -2.4740   0.0000   0.2519
   8.200   1.0745   0.01161   0.00577  -0.0160  0.1659  0.9977  -2.5376   0.0000   0.2523
   8.400   1.1008   0.01183   0.00597  -0.0171  0.1632  0.9988  -2.6033   0.0000   0.2526
   8.600   1.1276   0.01196   0.00613  -0.0183  0.1612  0.9998  -2.6717   0.0000   0.2530
   8.800   1.1458   0.01211   0.00628  -0.0176  0.1590  1.0000  -2.7289   0.0000   0.2519
   9.000   1.1609   0.01226   0.00644  -0.0163  0.1568  1.0000  -2.7835   0.0000   0.2503
   9.200   1.1755   0.01244   0.00661  -0.0149  0.1547  1.0000  -2.8381   0.0000   0.2486
   9.400   1.1907   0.01260   0.00678  -0.0136  0.1528  1.0000  -2.8962   0.0000   0.2471
   9.600   1.2065   0.01274   0.00694  -0.0124  0.1508  1.0000  -2.9570   0.0000   0.2457
   9.800   1.2220   0.01290   0.00711  -0.0112  0.1487  1.0000  -3.0197   0.0000   0.2443
  10.000   1.2373   0.01309   0.00730  -0.0100  0.1464  1.0000  -3.0851   0.0000   0.2429
  10.200   1.2521   0.01332   0.00751  -0.0087  0.1441  1.0000  -3.1524   0.0000   0.2415
  10.400   1.2686   0.01347   0.00769  -0.0077  0.1422  1.0000  -3.2264   0.0000   0.2403
  10.600   1.2847   0.01365   0.00789  -0.0067  0.1399  1.0000  -3.3032   0.0000   0.2391
  10.800   1.3004   0.01386   0.00810  -0.0056  0.1375  1.0000  -3.3841   0.0000   0.2379
  11.000   1.3157   0.01413   0.00836  -0.0046  0.1350  1.0000  -3.4661   0.0000   0.2367
  11.200   1.3330   0.01431   0.00857  -0.0038  0.1329  1.0000  -3.5570   0.0000   0.2358
  11.400   1.3496   0.01453   0.00881  -0.0029  0.1303  1.0000  -3.6486   0.0000   0.2348
  11.600   1.3654   0.01480   0.00907  -0.0020  0.1276  1.0000  -3.7432   0.0000   0.2338
  11.800   1.3813   0.01508   0.00936  -0.0011  0.1252  1.0000  -3.8386   0.0000   0.2327
  12.000   1.3978   0.01531   0.00962  -0.0003  0.1227  1.0000  -3.9392   0.0000   0.2318
  12.200   1.4129   0.01560   0.00991   0.0007  0.1200  1.0000  -4.0402   0.0000   0.2308
  12.400   1.4257   0.01594   0.01024   0.0021  0.1173  1.0000  -4.1360   0.0000   0.2295
  12.600   1.4405   0.01620   0.01054   0.0032  0.1151  1.0000  -4.2380   0.0000   0.2284
  12.800   1.4541   0.01652   0.01087   0.0043  0.1124  1.0000  -4.3398   0.0000   0.2272
  13.000   1.4666   0.01692   0.01127   0.0056  0.1096  1.0000  -4.4431   0.0000   0.2260
  13.200   1.4805   0.01727   0.01164   0.0067  0.1072  1.0000  -4.5512   0.0000   0.2250
  13.400   1.4938   0.01765   0.01205   0.0077  0.1045  1.0000  -4.6588   0.0000   0.2239
  13.600   1.5057   0.01813   0.01253   0.0089  0.1017  1.0000  -4.7623   0.0000   0.2228
  13.800   1.5185   0.01858   0.01300   0.0099  0.0992  1.0000  -4.8698   0.0000   0.2218
  14.000   1.5307   0.01906   0.01351   0.0110  0.0962  1.0000  -4.9779   0.0000   0.2208
  14.200   1.5410   0.01968   0.01412   0.0122  0.0933  1.0000  -5.0849   0.0000   0.2197
  14.400   1.5530   0.02020   0.01468   0.0131  0.0909  1.0000  -5.1987   0.0000   0.2187
  14.600   1.5635   0.02083   0.01533   0.0141  0.0880  1.0000  -5.3080   0.0000   0.2177
  14.800   1.5722   0.02160   0.01610   0.0152  0.0852  1.0000  -5.4115   0.0000   0.2167
  15.000   1.5826   0.02228   0.01682   0.0161  0.0824  1.0000  -5.5214   0.0000   0.2158
  15.200   1.5903   0.02316   0.01771   0.0171  0.0794  1.0000  -5.6222   0.0000   0.2147
  15.400   1.5984   0.02405   0.01863   0.0180  0.0768  1.0000  -5.7246   0.0000   0.2138
  15.600   1.6061   0.02500   0.01961   0.0189  0.0741  1.0000  -5.8261   0.0000   0.2129
  15.800   1.6112   0.02618   0.02081   0.0197  0.0715  1.0000  -5.9176   0.0000   0.2120
  16.000   1.6181   0.02727   0.02194   0.0204  0.0692  1.0000  -6.0206   0.0000   0.2112
  16.200   1.6229   0.02857   0.02327   0.0210  0.0666  1.0000  -6.1173   0.0000   0.2104
  16.400   1.6253   0.03012   0.02484   0.0216  0.0642  1.0000  -6.2041   0.0000   0.2096
  16.600   1.6296   0.03157   0.02634   0.0219  0.0619  1.0000  -6.2990   0.0000   0.2089
  16.800   1.6305   0.03338   0.02819   0.0222  0.0595  1.0000  -6.3787   0.0000   0.2082
  17.000   1.6306   0.03535   0.03020   0.0224  0.0574  1.0000  -6.4544   0.0000   0.2076
  17.200   1.6313   0.03732   0.03223   0.0224  0.0554  1.0000  -6.5328   0.0000   0.2071
  17.400   1.6287   0.03970   0.03466   0.0222  0.0535  1.0000  -6.5954   0.0000   0.2066
  17.600   1.6240   0.04238   0.03739   0.0219  0.0518  1.0000  -6.6473   0.0000   0.2063
  17.800   1.6215   0.04491   0.03999   0.0215  0.0504  1.0000  -6.7089   0.0000   0.2060
  18.000   1.6161   0.04785   0.04300   0.0208  0.0489  1.0000  -6.7556   0.0000   0.2058
  18.200   1.6071   0.05127   0.04649   0.0200  0.0476  1.0000  -6.7841   0.0000   0.2057
  18.400   1.5953   0.05516   0.05046   0.0189  0.0464  1.0000  -6.7967   0.0000   0.2057
  18.600   1.5855   0.05890   0.05429   0.0177  0.0455  1.0000  -6.8177   0.0000   0.2058
  18.800   1.5734   0.06298   0.05846   0.0163  0.0446  1.0000  -6.8256   0.0000   0.2060
  19.000   1.5583   0.06754   0.06311   0.0148  0.0437  1.0000  -6.8165   0.0000   0.2063
  19.200   1.5401   0.07262   0.06829   0.0129  0.0429  1.0000  -6.7889   0.0000   0.2069
  19.400   1.5190   0.07817   0.07394   0.0108  0.0423  1.0000  -6.7434   0.0000   0.2075
  19.600   1.4956   0.08414   0.08002   0.0085  0.0418  1.0000  -6.6821   0.0000   0.2084
  19.800   1.4706   0.09047   0.08645   0.0060  0.0413  1.0000  -6.6084   0.0000   0.2094
  20.200   1.4227   0.10299   0.09919   0.0008  0.0404  1.0000  -6.4625   0.0000   0.2118
  20.400   1.4014   0.10900   0.10530  -0.0018  0.0399  1.0000  -6.3991   0.0000   0.2131
  20.600   1.3807   0.11500   0.11138  -0.0045  0.0393  1.0000  -6.3347   0.0000   0.2146
  20.800   1.3612   0.12083   0.11730  -0.0073  0.0386  1.0000  -6.2745   0.0000   0.2161
  21.000   1.3428   0.12660   0.12314  -0.0100  0.0379  1.0000  -6.2169   0.0000   0.2177
  21.200   1.3250   0.13237   0.12897  -0.0129  0.0372  1.0000  -6.1587   0.0000   0.2195
  21.400   1.3079   0.13810   0.13477  -0.0159  0.0364  1.0000  -6.1008   0.0000   0.2214
  21.600   1.2929   0.14352   0.14024  -0.0189  0.0356  1.0000  -6.0522   0.0000   0.2233
  21.800   1.2847   0.14784   0.14462  -0.0212  0.0348  1.0000  -6.0448   0.0000   0.2247
  22.000   1.2770   0.15209   0.14891  -0.0237  0.0339  1.0000  -6.0392   0.0000   0.2262
  22.200   1.2678   0.15671   0.15358  -0.0264  0.0330  1.0000  -6.0193   0.0000   0.2279
  22.400   1.2591   0.16126   0.15816  -0.0291  0.0321  1.0000  -6.0016   0.0000   0.2297
  22.600   1.2497   0.16603   0.16296  -0.0321  0.0311  1.0000  -5.9773   0.0000   0.2317
  22.800   1.2456   0.16982   0.16679  -0.0345  0.0304  1.0000  -5.9903   0.0000   0.2332
  23.000   1.2424   0.17343   0.17044  -0.0368  0.0296  1.0000  -6.0087   0.0000   0.2346
  23.200   1.2392   0.17706   0.17411  -0.0392  0.0287  1.0000  -6.0255   0.0000   0.2361
  23.400   1.2338   0.18115   0.17823  -0.0420  0.0279  1.0000  -6.0226   0.0000   0.2379
  23.600   1.2296   0.18508   0.18218  -0.0447  0.0270  1.0000  -6.0264   0.0000   0.2397
  23.800   1.2252   0.18907   0.18620  -0.0474  0.0263  1.0000  -6.0262   0.0000   0.2416
  24.000   1.2259   0.19204   0.18920  -0.0496  0.0257  1.0000  -6.0672   0.0000   0.2427
  24.200   1.2256   0.19519   0.19239  -0.0519  0.0251  1.0000  -6.0996   0.0000   0.2440
  24.400   1.2239   0.19870   0.19593  -0.0545  0.0244  1.0000  -6.1166   0.0000   0.2456
  24.600   1.2228   0.20208   0.19933  -0.0570  0.0237  1.0000  -6.1389   0.0000   0.2472
  24.800   1.2205   0.20577   0.20304  -0.0597  0.0230  1.0000  -6.1467   0.0000   0.2490
  25.000   1.2186   0.20937   0.20664  -0.0625  0.0223  1.0000  -6.1564   0.0000   0.2507


