xflr5 v6.47

 Calculated polar for: NACA 23015

 1 1 Reynolds number fixed          Mach number fixed         

 xtrf =   1.000 (top)        1.000 (bottom)
 Mach =   0.003     Re =     1.500 e 6     Ncrit =   7.000

  alpha     CL        CD       CDp       Cm    Top Xtr Bot Xtr   Cpmin    Chinge    XCp    
 ------- -------- --------- --------- -------- ------- ------- -------- --------- ---------
 -15.000  -1.3145   0.02448   0.01972  -0.0442  1.0000  0.0146  -10.3879   0.0000   0.1972
 -14.800  -1.3040   0.02380   0.01899  -0.0432  1.0000  0.0147  -10.2223   0.0000   0.1981
 -14.600  -1.2929   0.02317   0.01832  -0.0421  1.0000  0.0148  -10.0537   0.0000   0.1989
 -14.400  -1.2814   0.02259   0.01770  -0.0411  1.0000  0.0149  -9.8829   0.0000   0.1998
 -14.200  -1.2694   0.02205   0.01713  -0.0399  1.0000  0.0149  -9.7106   0.0000   0.2007
 -14.000  -1.2573   0.02154   0.01659  -0.0388  1.0000  0.0150  -9.5377   0.0000   0.2016
 -13.800  -1.2492   0.02080   0.01579  -0.0371  1.0000  0.0152  -9.3961   0.0000   0.2031
 -13.600  -1.2412   0.02009   0.01503  -0.0353  1.0000  0.0154  -9.2560   0.0000   0.2047
 -13.400  -1.2316   0.01952   0.01442  -0.0335  1.0000  0.0157  -9.1042   0.0000   0.2062
 -13.200  -1.2212   0.01903   0.01391  -0.0317  1.0000  0.0159  -8.9468   0.0000   0.2078
 -13.000  -1.2105   0.01861   0.01347  -0.0299  1.0000  0.0161  -8.7869   0.0000   0.2093
 -12.800  -1.1987   0.01823   0.01306  -0.0282  1.0000  0.0162  -8.6218   0.0000   0.2108
 -12.600  -1.1854   0.01787   0.01268  -0.0268  1.0000  0.0164  -8.4501   0.0000   0.2120
 -12.400  -1.1722   0.01752   0.01233  -0.0253  1.0000  0.0166  -8.2801   0.0000   0.2133
 -12.200  -1.1596   0.01721   0.01199  -0.0236  1.0000  0.0168  -8.1169   0.0000   0.2148
 -12.000  -1.1473   0.01691   0.01167  -0.0218  1.0000  0.0170  -7.9634   0.0000   0.2164
 -11.800  -1.1353   0.01662   0.01137  -0.0200  1.0000  0.0171  -7.8124   0.0000   0.2181
 -11.600  -1.1239   0.01635   0.01108  -0.0180  1.0000  0.0173  -7.6648   0.0000   0.2200
 -11.400  -1.1129   0.01609   0.01080  -0.0159  1.0000  0.0175  -7.5205   0.0000   0.2220
 -11.200  -1.0917   0.01576   0.01045  -0.0159  0.9993  0.0177  -7.3333   0.0000   0.2219
 -11.000  -1.0672   0.01543   0.01010  -0.0165  0.9983  0.0179  -7.1337   0.0000   0.2212
 -10.800  -1.0425   0.01511   0.00976  -0.0173  0.9974  0.0181  -6.9348   0.0000   0.2204
 -10.600  -1.0181   0.01480   0.00943  -0.0179  0.9960  0.0183  -6.7396   0.0000   0.2196
 -10.400  -0.9932   0.01451   0.00913  -0.0186  0.9947  0.0184  -6.5438   0.0000   0.2186
 -10.200  -0.9688   0.01409   0.00869  -0.0192  0.9935  0.0188  -6.3585   0.0000   0.2177
 -10.000  -0.9447   0.01369   0.00827  -0.0198  0.9920  0.0193  -6.1758   0.0000   0.2167
  -9.800  -0.9204   0.01336   0.00795  -0.0204  0.9901  0.0197  -5.9903   0.0000   0.2157
  -9.600  -0.8957   0.01307   0.00766  -0.0210  0.9882  0.0201  -5.8041   0.0000   0.2146
  -9.400  -0.8718   0.01281   0.00741  -0.0215  0.9856  0.0205  -5.6224   0.0000   0.2136
  -9.200  -0.8485   0.01258   0.00716  -0.0217  0.9821  0.0209  -5.4454   0.0000   0.2128
  -9.000  -0.8255   0.01235   0.00693  -0.0219  0.9784  0.0214  -5.2717   0.0000   0.2120
  -8.800  -0.8033   0.01213   0.00670  -0.0219  0.9737  0.0217  -5.1039   0.0000   0.2115
  -8.600  -0.7821   0.01193   0.00648  -0.0216  0.9680  0.0220  -4.9420   0.0000   0.2113
  -8.400  -0.7611   0.01174   0.00627  -0.0213  0.9621  0.0222  -4.7824   0.0000   0.2111
  -8.200  -0.7415   0.01146   0.00597  -0.0207  0.9551  0.0227  -4.6335   0.0000   0.2113
  -8.000  -0.7221   0.01122   0.00572  -0.0201  0.9471  0.0234  -4.4856   0.0000   0.2116
  -7.800  -0.7022   0.01102   0.00551  -0.0195  0.9388  0.0239  -4.3358   0.0000   0.2117
  -7.600  -0.6820   0.01084   0.00532  -0.0190  0.9300  0.0245  -4.1867   0.0000   0.2118
  -7.400  -0.6616   0.01068   0.00513  -0.0185  0.9206  0.0250  -4.0485   0.0000   0.2119
  -7.200  -0.6411   0.01053   0.00495  -0.0180  0.9105  0.0255  -3.9121   0.0000   0.2118
  -7.000  -0.6203   0.01040   0.00477  -0.0176  0.8997  0.0260  -3.7769   0.0000   0.2117
  -6.800  -0.5994   0.01027   0.00461  -0.0172  0.8883  0.0263  -3.6426   0.0000   0.2115
  -6.600  -0.5790   0.01009   0.00439  -0.0167  0.8760  0.0272  -3.5143   0.0000   0.2114
  -6.400  -0.5582   0.00995   0.00421  -0.0163  0.8630  0.0282  -3.3839   0.0000   0.2111
  -6.200  -0.5371   0.00983   0.00406  -0.0160  0.8493  0.0291  -3.2537   0.0000   0.2107
  -6.000  -0.5159   0.00973   0.00392  -0.0157  0.8349  0.0299  -3.1252   0.0000   0.2102
  -5.800  -0.4945   0.00964   0.00378  -0.0154  0.8196  0.0305  -2.9987   0.0000   0.2096
  -5.600  -0.4734   0.00955   0.00362  -0.0150  0.8026  0.0313  -2.8753   0.0000   0.2090
  -5.400  -0.4526   0.00945   0.00346  -0.0146  0.7812  0.0326  -2.7544   0.0000   0.2085
  -5.200  -0.4316   0.00940   0.00334  -0.0142  0.7562  0.0337  -2.6342   0.0000   0.2079
  -5.000  -0.4104   0.00936   0.00322  -0.0139  0.7317  0.0348  -2.5152   0.0000   0.2070
  -4.800  -0.3887   0.00931   0.00310  -0.0137  0.7133  0.0356  -2.3986   0.0000   0.2057
  -4.600  -0.3673   0.00922   0.00298  -0.0134  0.6966  0.0373  -2.2920   0.0000   0.2043
  -4.400  -0.3455   0.00916   0.00287  -0.0132  0.6798  0.0390  -2.1853   0.0000   0.2026
  -4.200  -0.3236   0.00912   0.00278  -0.0131  0.6630  0.0405  -2.0800   0.0000   0.2005
  -4.000  -0.3019   0.00905   0.00267  -0.0129  0.6471  0.0424  -1.9772   0.0000   0.1982
  -3.800  -0.2801   0.00900   0.00258  -0.0127  0.6307  0.0445  -1.8754   0.0000   0.1955
  -3.600  -0.2580   0.00897   0.00250  -0.0126  0.6141  0.0462  -1.7749   0.0000   0.1921
  -3.400  -0.2362   0.00891   0.00241  -0.0124  0.5982  0.0490  -1.6765   0.0000   0.1881
  -3.200  -0.2141   0.00888   0.00234  -0.0123  0.5828  0.0518  -1.5791   0.0000   0.1831
  -3.000  -0.1922   0.00883   0.00226  -0.0121  0.5667  0.0555  -1.4863   0.0000   0.1772
  -2.800  -0.1701   0.00881   0.00220  -0.0120  0.5501  0.0591  -1.3997   0.0000   0.1695
  -2.600  -0.1481   0.00877   0.00213  -0.0119  0.5343  0.0636  -1.3145   0.0000   0.1595
  -2.400  -0.1261   0.00874   0.00207  -0.0118  0.5195  0.0690  -1.2307   0.0000   0.1459
  -2.200  -0.1041   0.00870   0.00202  -0.0116  0.5040  0.0761  -1.1485   0.0000   0.1267
  -2.000  -0.0823   0.00867   0.00196  -0.0115  0.4879  0.0858  -1.0680   0.0000   0.0976
  -1.800  -0.0606   0.00861   0.00191  -0.0113  0.4723  0.1000  -0.9896   0.0000   0.0483
  -1.600  -0.0393   0.00850   0.00184  -0.0111  0.4580  0.1263  -0.9193   0.0000  -0.0516
  -1.400  -0.0237   0.00774   0.00161  -0.0101  0.4451  0.2880  -0.8611   0.0000  -0.2034
  -1.200  -0.0041   0.00747   0.00153  -0.0097  0.4306  0.3581  -0.7957   0.0000  -2.2446
  -1.000   0.0166   0.00733   0.00150  -0.0094  0.4157  0.4030  -0.7294   0.0000   0.8318
  -0.800   0.0377   0.00724   0.00147  -0.0092  0.4011  0.4408  -0.7019   0.0000   0.4961
  -0.600   0.0590   0.00715   0.00146  -0.0089  0.3877  0.4765  -0.7289   0.0000   0.4010
  -0.400   0.0805   0.00711   0.00145  -0.0087  0.3743  0.5054  -0.7563   0.0000   0.3564
  -0.200   0.1021   0.00708   0.00146  -0.0086  0.3606  0.5332  -0.7839   0.0000   0.3306
   0.000   0.1237   0.00706   0.00146  -0.0084  0.3469  0.5594  -0.8118   0.0000   0.3138
   0.200   0.1454   0.00706   0.00148  -0.0082  0.3339  0.5845  -0.8411   0.0000   0.3021
   0.400   0.1671   0.00705   0.00150  -0.0081  0.3221  0.6086  -0.8706   0.0000   0.2933
   0.600   0.1889   0.00705   0.00152  -0.0079  0.3108  0.6322  -0.9003   0.0000   0.2866
   0.800   0.2106   0.00705   0.00155  -0.0078  0.2998  0.6566  -0.9302   0.0000   0.2812
   1.000   0.2321   0.00704   0.00158  -0.0075  0.2894  0.6827  -0.9602   0.0000   0.2766
   1.200   0.2535   0.00703   0.00162  -0.0073  0.2801  0.7113  -0.9914   0.0000   0.2727
   1.600   0.2977   0.00710   0.00171  -0.0071  0.2641  0.7443  -1.0559   0.0000   0.2673
   1.800   0.3199   0.00715   0.00175  -0.0070  0.2571  0.7573  -1.0886   0.0000   0.2652
   2.200   0.3642   0.00724   0.00185  -0.0068  0.2443  0.7833  -1.1557   0.0000   0.2618
   2.400   0.3863   0.00729   0.00191  -0.0067  0.2389  0.7962  -1.1904   0.0000   0.2603
   2.600   0.4086   0.00733   0.00196  -0.0066  0.2346  0.8087  -1.2255   0.0000   0.2590
   2.800   0.4307   0.00738   0.00203  -0.0065  0.2298  0.8210  -1.2607   0.0000   0.2578
   3.000   0.4528   0.00744   0.00209  -0.0064  0.2254  0.8330  -1.2961   0.0000   0.2566
   3.200   0.4750   0.00749   0.00216  -0.0064  0.2218  0.8448  -1.3333   0.0000   0.2556
   3.400   0.4971   0.00755   0.00223  -0.0062  0.2181  0.8562  -1.3707   0.0000   0.2547
   3.600   0.5191   0.00762   0.00230  -0.0061  0.2147  0.8673  -1.4083   0.0000   0.2538
   3.800   0.5413   0.00767   0.00238  -0.0060  0.2118  0.8780  -1.4464   0.0000   0.2529
   4.000   0.5632   0.00774   0.00246  -0.0059  0.2084  0.8882  -1.4845   0.0000   0.2521
   4.200   0.5849   0.00783   0.00255  -0.0057  0.2051  0.8977  -1.5243   0.0000   0.2512
   4.400   0.6069   0.00789   0.00263  -0.0056  0.2029  0.9068  -1.5647   0.0000   0.2505
   4.600   0.6289   0.00796   0.00271  -0.0054  0.2003  0.9155  -1.6053   0.0000   0.2498
   4.800   0.6505   0.00805   0.00280  -0.0053  0.1974  0.9240  -1.6459   0.0000   0.2490
   5.000   0.6719   0.00816   0.00290  -0.0050  0.1943  0.9317  -1.6870   0.0000   0.2482
   5.200   0.6937   0.00823   0.00299  -0.0049  0.1924  0.9387  -1.7301   0.0000   0.2476
   5.400   0.7153   0.00832   0.00308  -0.0047  0.1902  0.9459  -1.7734   0.0000   0.2469
   5.600   0.7368   0.00842   0.00318  -0.0045  0.1876  0.9521  -1.8167   0.0000   0.2462
   5.800   0.7583   0.00854   0.00330  -0.0043  0.1848  0.9579  -1.8603   0.0000   0.2456
   6.000   0.7797   0.00865   0.00340  -0.0041  0.1826  0.9640  -1.9061   0.0000   0.2450
   6.200   0.8025   0.00874   0.00350  -0.0042  0.1807  0.9683  -1.9537   0.0000   0.2447
   6.400   0.8245   0.00885   0.00361  -0.0041  0.1783  0.9732  -2.0009   0.0000   0.2443
   6.600   0.8479   0.00899   0.00373  -0.0044  0.1756  0.9768  -2.0500   0.0000   0.2443
   6.800   0.8706   0.00913   0.00386  -0.0045  0.1731  0.9808  -2.1006   0.0000   0.2441
   7.000   0.8958   0.00924   0.00397  -0.0052  0.1713  0.9831  -2.1547   0.0000   0.2445
   7.200   0.9199   0.00937   0.00409  -0.0057  0.1690  0.9860  -2.2080   0.0000   0.2446
   7.400   0.9451   0.00952   0.00423  -0.0064  0.1664  0.9880  -2.2643   0.0000   0.2450
   7.600   0.9711   0.00969   0.00438  -0.0073  0.1637  0.9893  -2.3231   0.0000   0.2456
   7.800   0.9976   0.00982   0.00452  -0.0083  0.1618  0.9905  -2.3831   0.0000   0.2462
   8.000   1.0234   0.00996   0.00465  -0.0092  0.1596  0.9920  -2.4444   0.0000   0.2466
   8.200   1.0491   0.01011   0.00480  -0.0101  0.1571  0.9933  -2.5070   0.0000   0.2469
   8.400   1.0753   0.01030   0.00497  -0.0111  0.1543  0.9941  -2.5709   0.0000   0.2474
   8.600   1.1015   0.01045   0.00512  -0.0121  0.1523  0.9950  -2.6383   0.0000   0.2478
   8.800   1.1274   0.01059   0.00527  -0.0131  0.1501  0.9961  -2.7057   0.0000   0.2481
   9.000   1.1528   0.01077   0.00544  -0.0139  0.1475  0.9973  -2.7758   0.0000   0.2483
   9.200   1.1783   0.01098   0.00562  -0.0148  0.1446  0.9981  -2.8473   0.0000   0.2486
   9.400   1.2042   0.01113   0.00578  -0.0158  0.1427  0.9988  -2.9232   0.0000   0.2488
   9.600   1.2298   0.01129   0.00595  -0.0167  0.1402  0.9996  -3.0019   0.0000   0.2490
   9.800   1.2495   0.01147   0.00613  -0.0164  0.1376  1.0000  -3.0736   0.0000   0.2483
  10.000   1.2640   0.01167   0.00631  -0.0150  0.1350  1.0000  -3.1387   0.0000   0.2467
  10.200   1.2798   0.01180   0.00645  -0.0138  0.1334  1.0000  -3.2105   0.0000   0.2453
  10.400   1.2954   0.01195   0.00661  -0.0126  0.1311  1.0000  -3.2858   0.0000   0.2440
  10.600   1.3106   0.01214   0.00679  -0.0114  0.1285  1.0000  -3.3637   0.0000   0.2426
  10.800   1.3257   0.01235   0.00700  -0.0102  0.1258  1.0000  -3.4440   0.0000   0.2412
  11.000   1.3421   0.01251   0.00717  -0.0092  0.1238  1.0000  -3.5326   0.0000   0.2401
  11.200   1.3580   0.01271   0.00737  -0.0081  0.1212  1.0000  -3.6212   0.0000   0.2389
  11.400   1.3736   0.01296   0.00760  -0.0070  0.1182  1.0000  -3.7142   0.0000   0.2377
  11.600   1.3903   0.01316   0.00782  -0.0062  0.1160  1.0000  -3.8118   0.0000   0.2367
  11.800   1.4071   0.01338   0.00804  -0.0054  0.1133  1.0000  -3.9112   0.0000   0.2358
  12.000   1.4231   0.01366   0.00831  -0.0045  0.1103  1.0000  -4.0147   0.0000   0.2348
  12.200   1.4396   0.01391   0.00857  -0.0036  0.1078  1.0000  -4.1205   0.0000   0.2338
  12.400   1.4561   0.01416   0.00883  -0.0029  0.1050  1.0000  -4.2275   0.0000   0.2329
  12.600   1.4713   0.01449   0.00914  -0.0019  0.1019  1.0000  -4.3329   0.0000   0.2319
  12.800   1.4867   0.01477   0.00943  -0.0009  0.0995  1.0000  -4.4454   0.0000   0.2309
  13.000   1.5008   0.01506   0.00973   0.0002  0.0966  1.0000  -4.5548   0.0000   0.2297
  13.200   1.5128   0.01544   0.01010   0.0017  0.0934  1.0000  -4.6588   0.0000   0.2284
  13.400   1.5265   0.01576   0.01043   0.0029  0.0909  1.0000  -4.7688   0.0000   0.2273
  13.600   1.5394   0.01614   0.01081   0.0041  0.0881  1.0000  -4.8773   0.0000   0.2261
  13.800   1.5512   0.01659   0.01126   0.0054  0.0851  1.0000  -4.9847   0.0000   0.2249
  14.000   1.5642   0.01699   0.01167   0.0065  0.0824  1.0000  -5.1021   0.0000   0.2238
  14.200   1.5750   0.01752   0.01220   0.0079  0.0790  1.0000  -5.2124   0.0000   0.2226
  14.400   1.5868   0.01801   0.01271   0.0090  0.0763  1.0000  -5.3272   0.0000   0.2216
  14.600   1.5976   0.01857   0.01327   0.0102  0.0733  1.0000  -5.4392   0.0000   0.2205
  14.800   1.6075   0.01921   0.01391   0.0114  0.0706  1.0000  -5.5485   0.0000   0.2194
  15.000   1.6181   0.01980   0.01453   0.0124  0.0680  1.0000  -5.6614   0.0000   0.2183
  15.200   1.6262   0.02058   0.01531   0.0137  0.0651  1.0000  -5.7653   0.0000   0.2172
  15.400   1.6355   0.02131   0.01606   0.0147  0.0625  1.0000  -5.8741   0.0000   0.2162
  15.600   1.6427   0.02220   0.01696   0.0158  0.0596  1.0000  -5.9758   0.0000   0.2151
  15.800   1.6497   0.02314   0.01792   0.0168  0.0571  1.0000  -6.0832   0.0000   0.2141
  16.000   1.6565   0.02413   0.01892   0.0177  0.0546  1.0000  -6.1908   0.0000   0.2132
  16.200   1.6611   0.02533   0.02013   0.0187  0.0522  1.0000  -6.2889   0.0000   0.2122
  16.400   1.6678   0.02641   0.02126   0.0194  0.0504  1.0000  -6.3963   0.0000   0.2113
  16.600   1.6722   0.02771   0.02258   0.0200  0.0483  1.0000  -6.4945   0.0000   0.2105
  17.000   1.6790   0.03067   0.02562   0.0210  0.0448  1.0000  -6.6815   0.0000   0.2090
  17.200   1.6811   0.03234   0.02733   0.0214  0.0432  1.0000  -6.7694   0.0000   0.2083
  17.400   1.6805   0.03434   0.02936   0.0216  0.0415  1.0000  -6.8444   0.0000   0.2077
  17.600   1.6809   0.03632   0.03139   0.0216  0.0401  1.0000  -6.9240   0.0000   0.2071
  17.800   1.6804   0.03846   0.03358   0.0215  0.0388  1.0000  -6.9987   0.0000   0.2066
  18.000   1.6769   0.04095   0.03612   0.0213  0.0375  1.0000  -7.0591   0.0000   0.2062
  18.200   1.6709   0.04383   0.03906   0.0209  0.0362  1.0000  -7.1059   0.0000   0.2059
  18.400   1.6659   0.04669   0.04199   0.0203  0.0352  1.0000  -7.1571   0.0000   0.2056
  18.600   1.6601   0.04971   0.04508   0.0196  0.0343  1.0000  -7.2032   0.0000   0.2055
  18.800   1.6515   0.05313   0.04858   0.0187  0.0335  1.0000  -7.2343   0.0000   0.2054
  19.000   1.6401   0.05700   0.05253   0.0175  0.0327  1.0000  -7.2497   0.0000   0.2054
  19.200   1.6260   0.06131   0.05691   0.0161  0.0320  1.0000  -7.2492   0.0000   0.2056
  19.400   1.6093   0.06601   0.06170   0.0145  0.0314  1.0000  -7.2333   0.0000   0.2059
  19.800   1.5726   0.07617   0.07206   0.0108  0.0306  1.0000  -7.1766   0.0000   0.2068
  20.000   1.5520   0.08163   0.07763   0.0088  0.0304  1.0000  -7.1326   0.0000   0.2075
  20.200   1.5296   0.08748   0.08359   0.0065  0.0301  1.0000  -7.0752   0.0000   0.2083
  20.400   1.5056   0.09363   0.08985   0.0040  0.0299  1.0000  -7.0056   0.0000   0.2093
  20.600   1.4798   0.10008   0.09641   0.0014  0.0297  1.0000  -6.9229   0.0000   0.2104
  20.800   1.4540   0.10668   0.10311  -0.0014  0.0295  1.0000  -6.8353   0.0000   0.2118
  21.000   1.4302   0.11308   0.10961  -0.0043  0.0292  1.0000  -6.7549   0.0000   0.2133
  21.200   1.4057   0.11960   0.11624  -0.0073  0.0289  1.0000  -6.6670   0.0000   0.2149
  21.400   1.3841   0.12582   0.12253  -0.0103  0.0286  1.0000  -6.5918   0.0000   0.2166
  21.600   1.3644   0.13182   0.12862  -0.0133  0.0281  1.0000  -6.5247   0.0000   0.2184
  21.800   1.3463   0.13767   0.13453  -0.0163  0.0277  1.0000  -6.4630   0.0000   0.2202
  22.000   1.3294   0.14334   0.14026  -0.0194  0.0271  1.0000  -6.4058   0.0000   0.2221
  22.400   1.3063   0.15309   0.15013  -0.0249  0.0261  1.0000  -6.3525   0.0000   0.2255
  22.600   1.2976   0.15757   0.15466  -0.0275  0.0256  1.0000  -6.3415   0.0000   0.2272
  22.800   1.2899   0.16192   0.15906  -0.0302  0.0251  1.0000  -6.3343   0.0000   0.2288
  23.000   1.2831   0.16615   0.16333  -0.0328  0.0245  1.0000  -6.3315   0.0000   0.2304
  23.200   1.2750   0.17065   0.16787  -0.0357  0.0239  1.0000  -6.3161   0.0000   0.2323
  23.400   1.2686   0.17482   0.17207  -0.0384  0.0233  1.0000  -6.3120   0.0000   0.2341
  23.600   1.2606   0.17938   0.17667  -0.0414  0.0226  1.0000  -6.2904   0.0000   0.2361
  23.800   1.2579   0.18291   0.18024  -0.0438  0.0221  1.0000  -6.3107   0.0000   0.2375
  24.000   1.2552   0.18651   0.18388  -0.0463  0.0217  1.0000  -6.3280   0.0000   0.2391
  24.200   1.2533   0.18994   0.18734  -0.0488  0.0212  1.0000  -6.3516   0.0000   0.2405
  24.400   1.2517   0.19333   0.19076  -0.0512  0.0207  1.0000  -6.3758   0.0000   0.2419
  24.600   1.2476   0.19729   0.19476  -0.0541  0.0201  1.0000  -6.3753   0.0000   0.2438
  24.800   1.2452   0.20092   0.19840  -0.0568  0.0196  1.0000  -6.3886   0.0000   0.2455
  25.000   1.2410   0.20499   0.20250  -0.0598  0.0189  1.0000  -6.3811   0.0000   0.2475


