xflr5 v6.47

 Calculated polar for: NACA 23015

 1 1 Reynolds number fixed          Mach number fixed         

 xtrf =   1.000 (top)        1.000 (bottom)
 Mach =   0.003     Re =     0.450 e 6     Ncrit =   7.000

  alpha     CL        CD       CDp       Cm    Top Xtr Bot Xtr   Cpmin    Chinge    XCp    
 ------- -------- --------- --------- -------- ------- ------- -------- --------- ---------
 -15.000  -0.9332   0.06837   0.06471  -0.0434  1.0000  0.0213  -7.1407   0.0000   0.1823
 -14.800  -0.9619   0.06134   0.05745  -0.0475  1.0000  0.0213  -7.3290   0.0000   0.1801
 -14.600  -0.9830   0.05594   0.05185  -0.0502  1.0000  0.0214  -7.4458   0.0000   0.1791
 -14.400  -0.9992   0.05160   0.04730  -0.0518  1.0000  0.0215  -7.5171   0.0000   0.1789
 -14.200  -1.0116   0.04800   0.04351  -0.0526  1.0000  0.0216  -7.5555   0.0000   0.1792
 -14.000  -1.0210   0.04497   0.04029  -0.0528  1.0000  0.0217  -7.5679   0.0000   0.1800
 -13.800  -1.0277   0.04239   0.03753  -0.0525  1.0000  0.0218  -7.5585   0.0000   0.1811
 -13.600  -1.0320   0.04018   0.03514  -0.0518  1.0000  0.0220  -7.5303   0.0000   0.1823
 -13.400  -1.0341   0.03828   0.03308  -0.0508  1.0000  0.0221  -7.4854   0.0000   0.1838
 -13.200  -1.0343   0.03665   0.03129  -0.0497  1.0000  0.0222  -7.4255   0.0000   0.1853
 -13.000  -1.0349   0.03488   0.02937  -0.0482  1.0000  0.0224  -7.3714   0.0000   0.1871
 -12.800  -1.0327   0.03332   0.02772  -0.0467  1.0000  0.0226  -7.2940   0.0000   0.1887
 -12.600  -1.0273   0.03219   0.02654  -0.0453  1.0000  0.0228  -7.1890   0.0000   0.1902
 -12.400  -1.0205   0.03127   0.02557  -0.0438  1.0000  0.0230  -7.0732   0.0000   0.1916
 -12.200  -1.0132   0.03046   0.02472  -0.0423  1.0000  0.0232  -6.9534   0.0000   0.1932
 -12.000  -1.0057   0.02972   0.02392  -0.0406  1.0000  0.0234  -6.8330   0.0000   0.1948
 -11.800  -0.9983   0.02901   0.02317  -0.0387  1.0000  0.0236  -6.7140   0.0000   0.1967
 -11.600  -0.9909   0.02834   0.02243  -0.0367  1.0000  0.0239  -6.5968   0.0000   0.1987
 -11.400  -0.9827   0.02766   0.02170  -0.0347  1.0000  0.0241  -6.4783   0.0000   0.2007
 -11.200  -0.9731   0.02696   0.02093  -0.0330  1.0000  0.0244  -6.3626   0.0000   0.2024
 -11.000  -0.9632   0.02627   0.02017  -0.0312  1.0000  0.0247  -6.2529   0.0000   0.2041
 -10.800  -0.9534   0.02562   0.01943  -0.0294  1.0000  0.0251  -6.1435   0.0000   0.2060
 -10.600  -0.9434   0.02501   0.01875  -0.0274  1.0000  0.0255  -6.0339   0.0000   0.2079
 -10.400  -0.9334   0.02445   0.01809  -0.0254  1.0000  0.0259  -5.9249   0.0000   0.2100
 -10.200  -0.9233   0.02394   0.01749  -0.0234  1.0000  0.0262  -5.8152   0.0000   0.2121
 -10.000  -0.9134   0.02333   0.01681  -0.0214  1.0000  0.0265  -5.7095   0.0000   0.2143
  -9.800  -0.9042   0.02258   0.01604  -0.0193  1.0000  0.0269  -5.6033   0.0000   0.2166
  -9.600  -0.8943   0.02210   0.01556  -0.0172  1.0000  0.0273  -5.4873   0.0000   0.2189
  -9.400  -0.8844   0.02169   0.01514  -0.0151  1.0000  0.0276  -5.3714   0.0000   0.2213
  -9.200  -0.8743   0.02130   0.01473  -0.0130  1.0000  0.0279  -5.2566   0.0000   0.2237
  -9.000  -0.8643   0.02092   0.01433  -0.0109  1.0000  0.0283  -5.1436   0.0000   0.2262
  -8.800  -0.8473   0.02047   0.01385  -0.0101  0.9993  0.0288  -5.0089   0.0000   0.2271
  -8.600  -0.8205   0.01992   0.01325  -0.0113  0.9975  0.0294  -4.8441   0.0000   0.2253
  -8.400  -0.7940   0.01937   0.01264  -0.0125  0.9953  0.0301  -4.6839   0.0000   0.2236
  -8.200  -0.7665   0.01888   0.01207  -0.0137  0.9933  0.0307  -4.5223   0.0000   0.2215
  -8.000  -0.7414   0.01818   0.01136  -0.0147  0.9906  0.0314  -4.3706   0.0000   0.2197
  -7.800  -0.7144   0.01769   0.01089  -0.0159  0.9883  0.0321  -4.2045   0.0000   0.2173
  -7.600  -0.6869   0.01730   0.01052  -0.0172  0.9858  0.0330  -4.0379   0.0000   0.2147
  -7.400  -0.6597   0.01691   0.01011  -0.0183  0.9828  0.0340  -3.8776   0.0000   0.2120
  -7.200  -0.6310   0.01651   0.00966  -0.0198  0.9807  0.0350  -3.7199   0.0000   0.2084
  -7.000  -0.6048   0.01605   0.00917  -0.0207  0.9770  0.0359  -3.5862   0.0000   0.2056
  -6.800  -0.5785   0.01551   0.00867  -0.0218  0.9738  0.0369  -3.4481   0.0000   0.2023
  -6.600  -0.5532   0.01515   0.00831  -0.0225  0.9692  0.0379  -3.3125   0.0000   0.1993
  -6.400  -0.5272   0.01478   0.00794  -0.0233  0.9649  0.0391  -3.1787   0.0000   0.1958
  -6.200  -0.5039   0.01446   0.00758  -0.0235  0.9585  0.0402  -3.0554   0.0000   0.1935
  -6.000  -0.4810   0.01406   0.00718  -0.0236  0.9521  0.0415  -2.9345   0.0000   0.1910
  -5.800  -0.4578   0.01373   0.00688  -0.0238  0.9455  0.0429  -2.8093   0.0000   0.1882
  -5.600  -0.4365   0.01347   0.00660  -0.0235  0.9367  0.0445  -2.6923   0.0000   0.1863
  -5.400  -0.4153   0.01323   0.00632  -0.0231  0.9274  0.0460  -2.5794   0.0000   0.1845
  -5.200  -0.3956   0.01288   0.00598  -0.0225  0.9173  0.0475  -2.4716   0.0000   0.1833
  -5.000  -0.3753   0.01264   0.00572  -0.0219  0.9066  0.0492  -2.3614   0.0000   0.1817
  -4.800  -0.3549   0.01242   0.00547  -0.0214  0.8950  0.0511  -2.2582   0.0000   0.1800
  -4.600  -0.3351   0.01217   0.00519  -0.0207  0.8825  0.0532  -2.1623   0.0000   0.1784
  -4.400  -0.3149   0.01198   0.00497  -0.0201  0.8687  0.0557  -2.0647   0.0000   0.1763
  -4.200  -0.2947   0.01182   0.00474  -0.0194  0.8525  0.0583  -1.9701   0.0000   0.1742
  -4.000  -0.2752   0.01161   0.00451  -0.0187  0.8335  0.0612  -1.8770   0.0000   0.1721
  -3.800  -0.2549   0.01149   0.00430  -0.0181  0.8145  0.0645  -1.7845   0.0000   0.1691
  -3.600  -0.2350   0.01131   0.00409  -0.0175  0.7964  0.0684  -1.6930   0.0000   0.1655
  -3.400  -0.2145   0.01118   0.00391  -0.0170  0.7797  0.0731  -1.6020   0.0000   0.1607
  -3.200  -0.1940   0.01105   0.00374  -0.0165  0.7630  0.0790  -1.5122   0.0000   0.1547
  -3.000  -0.1736   0.01091   0.00357  -0.0160  0.7462  0.0864  -1.4301   0.0000   0.1474
  -2.800  -0.1534   0.01076   0.00341  -0.0155  0.7293  0.0972  -1.3505   0.0000   0.1381
  -2.400  -0.1209   0.00955   0.00286  -0.0135  0.6962  0.2856  -1.2109   0.0000   0.1264
  -2.200  -0.1049   0.00902   0.00270  -0.0125  0.6796  0.3931  -1.1421   0.0000   0.1189
  -2.000  -0.0866   0.00876   0.00261  -0.0117  0.6626  0.4565  -1.0694   0.0000   0.1024
  -1.800  -0.0677   0.00858   0.00254  -0.0110  0.6459  0.5032  -0.9970   0.0000   0.0740
  -1.600  -0.0481   0.00847   0.00249  -0.0103  0.6293  0.5423  -0.9295   0.0000   0.0191
  -1.400  -0.0283   0.00838   0.00246  -0.0097  0.6123  0.5756  -0.8626   0.0000  -0.1150
  -1.200  -0.0083   0.00832   0.00243  -0.0091  0.5951  0.6060  -0.7963   0.0000  -0.9074
  -1.000   0.0119   0.00828   0.00241  -0.0085  0.5781  0.6340  -0.7308   0.0000   0.9942
  -0.800   0.0322   0.00826   0.00241  -0.0080  0.5615  0.6603  -0.6964   0.0000   0.5029
  -0.600   0.0525   0.00825   0.00241  -0.0074  0.5447  0.6852  -0.7227   0.0000   0.3915
  -0.400   0.0728   0.00825   0.00242  -0.0069  0.5279  0.7089  -0.7492   0.0000   0.3421
  -0.200   0.0934   0.00827   0.00243  -0.0063  0.5110  0.7321  -0.7760   0.0000   0.3145
   0.000   0.1138   0.00829   0.00246  -0.0058  0.4946  0.7549  -0.8029   0.0000   0.2966
   0.200   0.1341   0.00832   0.00251  -0.0052  0.4783  0.7788  -0.8307   0.0000   0.2838
   0.400   0.1545   0.00838   0.00256  -0.0046  0.4617  0.8014  -0.8591   0.0000   0.2744
   0.600   0.1752   0.00845   0.00261  -0.0041  0.4450  0.8180  -0.8879   0.0000   0.2676
   0.800   0.1963   0.00855   0.00265  -0.0037  0.4289  0.8307  -0.9171   0.0000   0.2629
   1.000   0.2175   0.00864   0.00270  -0.0033  0.4133  0.8431  -0.9465   0.0000   0.2591
   1.200   0.2386   0.00875   0.00276  -0.0029  0.3978  0.8551  -0.9769   0.0000   0.2560
   1.400   0.2597   0.00887   0.00283  -0.0026  0.3823  0.8667  -1.0080   0.0000   0.2533
   1.600   0.2808   0.00899   0.00290  -0.0022  0.3673  0.8778  -1.0391   0.0000   0.2510
   1.800   0.3020   0.00913   0.00299  -0.0018  0.3533  0.8881  -1.0706   0.0000   0.2491
   2.000   0.3233   0.00927   0.00308  -0.0015  0.3404  0.8979  -1.1024   0.0000   0.2475
   2.200   0.3447   0.00942   0.00317  -0.0012  0.3280  0.9072  -1.1352   0.0000   0.2462
   2.400   0.3661   0.00957   0.00327  -0.0009  0.3165  0.9163  -1.1689   0.0000   0.2450
   2.600   0.3875   0.00973   0.00337  -0.0006  0.3060  0.9252  -1.2027   0.0000   0.2440
   2.800   0.4098   0.00991   0.00349  -0.0005  0.2964  0.9327  -1.2376   0.0000   0.2435
   3.000   0.4328   0.01007   0.00361  -0.0006  0.2877  0.9395  -1.2732   0.0000   0.2435
   3.200   0.4554   0.01023   0.00373  -0.0006  0.2799  0.9467  -1.3098   0.0000   0.2433
   3.400   0.4793   0.01043   0.00386  -0.0009  0.2726  0.9525  -1.3484   0.0000   0.2437
   3.600   0.5043   0.01059   0.00399  -0.0014  0.2658  0.9576  -1.3881   0.0000   0.2445
   3.800   0.5283   0.01078   0.00413  -0.0018  0.2601  0.9633  -1.4272   0.0000   0.2450
   4.000   0.5558   0.01095   0.00427  -0.0028  0.2544  0.9666  -1.4701   0.0000   0.2466
   4.200   0.5818   0.01116   0.00442  -0.0037  0.2492  0.9708  -1.5136   0.0000   0.2477
   4.400   0.6096   0.01132   0.00457  -0.0049  0.2443  0.9739  -1.5590   0.0000   0.2493
   4.600   0.6388   0.01152   0.00472  -0.0065  0.2396  0.9761  -1.6063   0.0000   0.2512
   4.800   0.6659   0.01170   0.00489  -0.0076  0.2357  0.9796  -1.6517   0.0000   0.2523
   5.000   0.6952   0.01187   0.00504  -0.0091  0.2313  0.9816  -1.7018   0.0000   0.2540
   5.200   0.7238   0.01209   0.00520  -0.0106  0.2274  0.9838  -1.7518   0.0000   0.2553
   5.400   0.7509   0.01226   0.00537  -0.0118  0.2240  0.9870  -1.8003   0.0000   0.2561
   5.600   0.7803   0.01242   0.00553  -0.0134  0.2203  0.9886  -1.8521   0.0000   0.2575
   5.800   0.8084   0.01263   0.00570  -0.0148  0.2169  0.9908  -1.9050   0.0000   0.2584
   6.000   0.8362   0.01282   0.00588  -0.0161  0.2137  0.9933  -1.9576   0.0000   0.2592
   6.200   0.8651   0.01297   0.00604  -0.0177  0.2104  0.9950  -2.0120   0.0000   0.2602
   6.400   0.8932   0.01317   0.00622  -0.0191  0.2074  0.9970  -2.0675   0.0000   0.2609
   6.600   0.9210   0.01342   0.00643  -0.0205  0.2044  0.9988  -2.1239   0.0000   0.2616
   6.800   0.9463   0.01355   0.00659  -0.0214  0.2016  1.0000  -2.1777   0.0000   0.2616
   7.000   0.9617   0.01368   0.00674  -0.0201  0.1992  1.0000  -2.2201   0.0000   0.2598
   7.200   0.9767   0.01385   0.00691  -0.0188  0.1969  1.0000  -2.2638   0.0000   0.2579
   7.400   0.9909   0.01406   0.00709  -0.0174  0.1947  1.0000  -2.3070   0.0000   0.2559
   7.600   1.0060   0.01423   0.00727  -0.0161  0.1925  1.0000  -2.3511   0.0000   0.2541
   7.800   1.0215   0.01437   0.00744  -0.0149  0.1902  1.0000  -2.3973   0.0000   0.2524
   8.000   1.0366   0.01453   0.00762  -0.0136  0.1880  1.0000  -2.4445   0.0000   0.2507
   8.200   1.0512   0.01473   0.00782  -0.0123  0.1858  1.0000  -2.4913   0.0000   0.2490
   8.400   1.0650   0.01499   0.00805  -0.0108  0.1837  1.0000  -2.5379   0.0000   0.2472
   8.600   1.0807   0.01515   0.00825  -0.0096  0.1816  1.0000  -2.5889   0.0000   0.2457
   8.800   1.0963   0.01532   0.00845  -0.0084  0.1794  1.0000  -2.6402   0.0000   0.2442
   9.000   1.1116   0.01551   0.00866  -0.0072  0.1772  1.0000  -2.6931   0.0000   0.2427
   9.200   1.1262   0.01574   0.00889  -0.0059  0.1751  1.0000  -2.7464   0.0000   0.2412
   9.400   1.1403   0.01603   0.00915  -0.0046  0.1730  1.0000  -2.7997   0.0000   0.2396
   9.600   1.1564   0.01620   0.00939  -0.0035  0.1709  1.0000  -2.8586   0.0000   0.2384
   9.800   1.1723   0.01640   0.00962  -0.0025  0.1686  1.0000  -2.9190   0.0000   0.2372
  10.000   1.1877   0.01664   0.00988  -0.0014  0.1664  1.0000  -2.9808   0.0000   0.2359
  10.200   1.2024   0.01693   0.01016  -0.0002  0.1643  1.0000  -3.0445   0.0000   0.2347
  10.400   1.2178   0.01721   0.01046   0.0008  0.1623  1.0000  -3.1119   0.0000   0.2335
  10.600   1.2341   0.01743   0.01074   0.0017  0.1599  1.0000  -3.1843   0.0000   0.2325
  10.800   1.2498   0.01769   0.01102   0.0026  0.1576  1.0000  -3.2593   0.0000   0.2314
  11.000   1.2643   0.01799   0.01133   0.0037  0.1554  1.0000  -3.3358   0.0000   0.2303
  11.200   1.2771   0.01835   0.01169   0.0051  0.1533  1.0000  -3.4100   0.0000   0.2289
  11.400   1.2919   0.01859   0.01200   0.0062  0.1511  1.0000  -3.4940   0.0000   0.2278
  11.600   1.3059   0.01888   0.01233   0.0074  0.1486  1.0000  -3.5768   0.0000   0.2266
  11.800   1.3188   0.01922   0.01269   0.0086  0.1464  1.0000  -3.6613   0.0000   0.2253
  12.200   1.3450   0.01998   0.01352   0.0109  0.1418  1.0000  -3.8359   0.0000   0.2231
  12.400   1.3587   0.02035   0.01393   0.0119  0.1393  1.0000  -3.9293   0.0000   0.2221
  12.600   1.3710   0.02079   0.01439   0.0130  0.1369  1.0000  -4.0218   0.0000   0.2210
  12.800   1.3821   0.02133   0.01494   0.0142  0.1346  1.0000  -4.1111   0.0000   0.2199
  13.000   1.3962   0.02173   0.01542   0.0150  0.1321  1.0000  -4.2097   0.0000   0.2190
  13.200   1.4085   0.02223   0.01597   0.0159  0.1294  1.0000  -4.3056   0.0000   0.2181
  13.400   1.4190   0.02285   0.01659   0.0169  0.1271  1.0000  -4.4009   0.0000   0.2171
  13.600   1.4303   0.02345   0.01725   0.0178  0.1247  1.0000  -4.4991   0.0000   0.2162
  13.800   1.4423   0.02403   0.01789   0.0186  0.1220  1.0000  -4.6003   0.0000   0.2153
  14.000   1.4523   0.02475   0.01864   0.0194  0.1195  1.0000  -4.6958   0.0000   0.2144
  14.200   1.4603   0.02563   0.01953   0.0204  0.1172  1.0000  -4.7851   0.0000   0.2135
  14.400   1.4717   0.02632   0.02030   0.0210  0.1145  1.0000  -4.8860   0.0000   0.2128
  14.600   1.4808   0.02718   0.02122   0.0217  0.1119  1.0000  -4.9843   0.0000   0.2120
  14.800   1.4874   0.02827   0.02232   0.0224  0.1095  1.0000  -5.0754   0.0000   0.2111
  15.000   1.4961   0.02923   0.02336   0.0229  0.1071  1.0000  -5.1746   0.0000   0.2104
  15.200   1.5037   0.03032   0.02451   0.0234  0.1044  1.0000  -5.2702   0.0000   0.2097
  15.400   1.5086   0.03167   0.02589   0.0238  0.1019  1.0000  -5.3557   0.0000   0.2090
  15.600   1.5140   0.03303   0.02731   0.0242  0.0996  1.0000  -5.4428   0.0000   0.2084
  15.800   1.5198   0.03439   0.02874   0.0244  0.0970  1.0000  -5.5318   0.0000   0.2079
  16.000   1.5223   0.03611   0.03050   0.0245  0.0945  1.0000  -5.6078   0.0000   0.2073
  16.200   1.5237   0.03800   0.03244   0.0246  0.0923  1.0000  -5.6789   0.0000   0.2068
  16.400   1.5271   0.03974   0.03427   0.0245  0.0898  1.0000  -5.7578   0.0000   0.2064
  16.600   1.5269   0.04191   0.03649   0.0243  0.0875  1.0000  -5.8214   0.0000   0.2060
  16.800   1.5229   0.04455   0.03918   0.0239  0.0855  1.0000  -5.8711   0.0000   0.2058
  17.000   1.5232   0.04678   0.04150   0.0235  0.0833  1.0000  -5.9406   0.0000   0.2055
  17.200   1.5198   0.04948   0.04428   0.0229  0.0811  1.0000  -5.9933   0.0000   0.2054
  17.400   1.5125   0.05273   0.04759   0.0220  0.0791  1.0000  -6.0265   0.0000   0.2053
  17.600   1.5051   0.05610   0.05103   0.0210  0.0774  1.0000  -6.0577   0.0000   0.2054
  17.800   1.4989   0.05937   0.05440   0.0200  0.0754  1.0000  -6.0935   0.0000   0.2055
  18.000   1.4886   0.06321   0.05831   0.0187  0.0735  1.0000  -6.1089   0.0000   0.2057
  18.200   1.4748   0.06763   0.06281   0.0171  0.0720  1.0000  -6.1044   0.0000   0.2061
  18.400   1.4606   0.07218   0.06744   0.0154  0.0706  1.0000  -6.0964   0.0000   0.2066
  18.600   1.4490   0.07641   0.07177   0.0138  0.0690  1.0000  -6.0993   0.0000   0.2070
  18.800   1.4340   0.08119   0.07664   0.0119  0.0675  1.0000  -6.0831   0.0000   0.2077
  19.000   1.4165   0.08643   0.08196   0.0097  0.0662  1.0000  -6.0511   0.0000   0.2086
  19.200   1.3970   0.09201   0.08761   0.0074  0.0650  1.0000  -6.0066   0.0000   0.2096
  19.400   1.3801   0.09725   0.09294   0.0052  0.0638  1.0000  -5.9727   0.0000   0.2106
  19.600   1.3657   0.10221   0.09799   0.0030  0.0624  1.0000  -5.9494   0.0000   0.2116
  19.800   1.3497   0.10747   0.10332   0.0007  0.0610  1.0000  -5.9153   0.0000   0.2128
  20.000   1.3325   0.11297   0.10888  -0.0018  0.0596  1.0000  -5.8716   0.0000   0.2141
  20.200   1.3150   0.11854   0.11450  -0.0045  0.0584  1.0000  -5.8235   0.0000   0.2156
  20.400   1.3031   0.12331   0.11934  -0.0068  0.0570  1.0000  -5.8039   0.0000   0.2169
  20.600   1.2917   0.12805   0.12416  -0.0092  0.0555  1.0000  -5.7848   0.0000   0.2183
  20.800   1.2797   0.13294   0.12910  -0.0117  0.0540  1.0000  -5.7600   0.0000   0.2198
  21.000   1.2676   0.13788   0.13406  -0.0143  0.0527  1.0000  -5.7315   0.0000   0.2215
  21.200   1.2583   0.14236   0.13858  -0.0168  0.0513  1.0000  -5.7179   0.0000   0.2230
  21.400   1.2509   0.14661   0.14289  -0.0192  0.0498  1.0000  -5.7133   0.0000   0.2245
  21.600   1.2430   0.15096   0.14729  -0.0217  0.0483  1.0000  -5.7038   0.0000   0.2261
  21.800   1.2353   0.15534   0.15167  -0.0243  0.0470  1.0000  -5.6931   0.0000   0.2278
  22.000   1.2302   0.15925   0.15561  -0.0267  0.0456  1.0000  -5.6974   0.0000   0.2293
  22.200   1.2251   0.16327   0.15970  -0.0291  0.0442  1.0000  -5.6979   0.0000   0.2309
  22.400   1.2207   0.16713   0.16358  -0.0316  0.0429  1.0000  -5.7032   0.0000   0.2324
  22.600   1.2161   0.17101   0.16747  -0.0341  0.0416  1.0000  -5.7060   0.0000   0.2341
  22.800   1.2139   0.17445   0.17091  -0.0364  0.0404  1.0000  -5.7234   0.0000   0.2355
  23.000   1.2107   0.17818   0.17471  -0.0389  0.0393  1.0000  -5.7349   0.0000   0.2371
  23.200   1.2082   0.18178   0.17835  -0.0413  0.0381  1.0000  -5.7503   0.0000   0.2387
  23.400   1.2068   0.18515   0.18173  -0.0437  0.0370  1.0000  -5.7743   0.0000   0.2401
  23.600   1.2069   0.18817   0.18473  -0.0459  0.0359  1.0000  -5.8106   0.0000   0.2414
  23.800   1.2058   0.19152   0.18813  -0.0483  0.0350  1.0000  -5.8327   0.0000   0.2428
  24.000   1.2045   0.19500   0.19166  -0.0508  0.0340  1.0000  -5.8500   0.0000   0.2444
  24.200   1.2030   0.19850   0.19521  -0.0534  0.0330  1.0000  -5.8653   0.0000   0.2461
  24.400   1.2032   0.20162   0.19833  -0.0558  0.0321  1.0000  -5.8956   0.0000   0.2475
  24.600   1.2062   0.20404   0.20072  -0.0577  0.0312  1.0000  -5.9528   0.0000   0.2484
  24.800   1.2063   0.20722   0.20394  -0.0601  0.0304  1.0000  -5.9781   0.0000   0.2498
  25.000   1.2042   0.21093   0.20771  -0.0630  0.0295  1.0000  -5.9799   0.0000   0.2517


