xflr5 v6.47

 Calculated polar for: NACA 23015

 1 1 Reynolds number fixed          Mach number fixed         

 xtrf =   1.000 (top)        1.000 (bottom)
 Mach =   0.003     Re =     0.250 e 6     Ncrit =   7.000

  alpha     CL        CD       CDp       Cm    Top Xtr Bot Xtr   Cpmin    Chinge    XCp    
 ------- -------- --------- --------- -------- ------- ------- -------- --------- ---------
 -15.000  -0.3435   0.14408   0.14077  -0.0129  1.0000  0.0425  -1.3424   0.0000   0.1970
 -14.800  -0.3407   0.14234   0.13902  -0.0135  1.0000  0.0435  -1.3436   0.0000   0.1947
 -14.600  -0.3405   0.14034   0.13703  -0.0145  1.0000  0.0446  -1.3723   0.0000   0.1918
 -14.400  -0.3554   0.13730   0.13399  -0.0174  1.0000  0.0460  -1.5457   0.0000   0.1855
 -14.200  -0.3715   0.13376   0.13044  -0.0202  1.0000  0.0462  -1.7312   0.0000   0.1797
 -14.000  -0.3745   0.13126   0.12794  -0.0211  1.0000  0.0463  -1.7796   0.0000   0.1777
 -13.000  -0.6651   0.08934   0.08560  -0.0317  1.0000  0.0306  -4.1920   0.0000   0.1836
 -12.800  -0.7003   0.07895   0.07507  -0.0393  1.0000  0.0303  -4.4719   0.0000   0.1759
 -12.600  -0.7328   0.07079   0.06676  -0.0451  1.0000  0.0301  -4.6851   0.0000   0.1712
 -12.400  -0.7623   0.06434   0.06012  -0.0488  1.0000  0.0300  -4.8544   0.0000   0.1695
 -12.200  -0.7895   0.05908   0.05466  -0.0507  1.0000  0.0299  -4.9954   0.0000   0.1699
 -12.000  -0.8146   0.05469   0.05005  -0.0509  1.0000  0.0299  -5.1160   0.0000   0.1722
 -11.800  -0.8376   0.05094   0.04607  -0.0498  1.0000  0.0299  -5.2202   0.0000   0.1758
 -11.600  -0.8585   0.04771   0.04258  -0.0474  1.0000  0.0300  -5.3095   0.0000   0.1805
 -11.400  -0.8782   0.04489   0.03949  -0.0438  1.0000  0.0302  -5.3893   0.0000   0.1862
 -11.200  -0.8957   0.04217   0.03643  -0.0398  1.0000  0.0305  -5.4658   0.0000   0.1919
 -11.000  -0.9084   0.03970   0.03355  -0.0360  1.0000  0.0309  -5.5224   0.0000   0.1970
 -10.800  -0.9014   0.03833   0.03216  -0.0345  1.0000  0.0312  -5.4227   0.0000   0.1987
 -10.600  -0.8926   0.03748   0.03131  -0.0329  1.0000  0.0315  -5.3050   0.0000   0.2003
 -10.400  -0.8843   0.03670   0.03049  -0.0312  1.0000  0.0319  -5.1929   0.0000   0.2022
 -10.200  -0.8754   0.03596   0.02973  -0.0294  1.0000  0.0322  -5.0801   0.0000   0.2041
 -10.000  -0.8681   0.03502   0.02871  -0.0274  1.0000  0.0326  -4.9945   0.0000   0.2064
  -9.800  -0.8617   0.03387   0.02744  -0.0252  1.0000  0.0330  -4.9278   0.0000   0.2090
  -9.600  -0.8554   0.03261   0.02601  -0.0228  1.0000  0.0334  -4.8711   0.0000   0.2117
  -9.400  -0.8487   0.03133   0.02457  -0.0205  1.0000  0.0339  -4.8165   0.0000   0.2144
  -9.200  -0.8414   0.03008   0.02313  -0.0182  1.0000  0.0344  -4.7624   0.0000   0.2171
  -9.000  -0.8334   0.02889   0.02173  -0.0159  1.0000  0.0350  -4.7072   0.0000   0.2199
  -8.800  -0.8250   0.02784   0.02044  -0.0135  1.0000  0.0355  -4.6490   0.0000   0.2227
  -8.600  -0.8143   0.02685   0.01937  -0.0117  1.0000  0.0359  -4.5647   0.0000   0.2249
  -8.400  -0.8024   0.02615   0.01869  -0.0101  1.0000  0.0364  -4.4566   0.0000   0.2269
  -8.200  -0.7910   0.02564   0.01817  -0.0083  1.0000  0.0369  -4.3478   0.0000   0.2292
  -8.000  -0.7797   0.02517   0.01768  -0.0065  1.0000  0.0376  -4.2417   0.0000   0.2315
  -7.800  -0.7683   0.02469   0.01716  -0.0048  1.0000  0.0383  -4.1397   0.0000   0.2339
  -7.600  -0.7502   0.02405   0.01643  -0.0042  0.9990  0.0394  -4.0267   0.0000   0.2346
  -7.400  -0.7215   0.02324   0.01542  -0.0057  0.9964  0.0406  -3.8953   0.0000   0.2324
  -7.200  -0.6929   0.02234   0.01453  -0.0073  0.9939  0.0415  -3.7495   0.0000   0.2299
  -7.000  -0.6641   0.02170   0.01392  -0.0088  0.9909  0.0425  -3.5956   0.0000   0.2271
  -6.800  -0.6346   0.02109   0.01329  -0.0105  0.9879  0.0437  -3.4466   0.0000   0.2239
  -6.600  -0.6060   0.02046   0.01260  -0.0119  0.9843  0.0450  -3.3193   0.0000   0.2208
  -6.400  -0.5763   0.01982   0.01189  -0.0135  0.9812  0.0466  -3.1938   0.0000   0.2170
  -6.200  -0.5482   0.01926   0.01141  -0.0150  0.9770  0.0481  -3.0563   0.0000   0.2132
  -6.000  -0.5179   0.01876   0.01090  -0.0167  0.9736  0.0500  -2.9217   0.0000   0.2082
  -5.800  -0.4892   0.01826   0.01033  -0.0180  0.9691  0.0518  -2.8012   0.0000   0.2036
  -5.600  -0.4598   0.01759   0.00975  -0.0197  0.9655  0.0535  -2.6718   0.0000   0.1976
  -5.400  -0.4324   0.01711   0.00928  -0.0208  0.9602  0.0555  -2.5484   0.0000   0.1922
  -5.200  -0.4031   0.01668   0.00880  -0.0222  0.9557  0.0582  -2.4258   0.0000   0.1852
  -5.000  -0.3791   0.01616   0.00837  -0.0226  0.9483  0.0605  -2.3104   0.0000   0.1805
  -4.800  -0.3539   0.01576   0.00796  -0.0231  0.9410  0.0634  -2.1984   0.0000   0.1748
  -4.600  -0.3296   0.01529   0.00750  -0.0235  0.9335  0.0661  -2.0995   0.0000   0.1687
  -4.400  -0.3060   0.01490   0.00712  -0.0236  0.9249  0.0694  -2.0017   0.0000   0.1626
  -4.200  -0.2845   0.01451   0.00674  -0.0233  0.9145  0.0730  -1.9093   0.0000   0.1577
  -4.000  -0.2629   0.01419   0.00641  -0.0230  0.9034  0.0775  -1.8174   0.0000   0.1522
  -3.800  -0.2425   0.01382   0.00606  -0.0224  0.8914  0.0822  -1.7283   0.0000   0.1469
  -3.600  -0.2223   0.01348   0.00572  -0.0218  0.8778  0.0879  -1.6416   0.0000   0.1413
  -3.400  -0.2028   0.01317   0.00540  -0.0210  0.8618  0.0954  -1.5568   0.0000   0.1358
  -3.200  -0.1834   0.01286   0.00509  -0.0201  0.8453  0.1062  -1.4740   0.0000   0.1290
  -3.000  -0.1645   0.01249   0.00476  -0.0193  0.8289  0.1259  -1.4003   0.0000   0.1214
  -2.800  -0.1552   0.01118   0.00426  -0.0173  0.8131  0.3102  -1.3454   0.0000   0.1269
  -2.600  -0.1421   0.01048   0.00407  -0.0156  0.7971  0.4407  -1.2824   0.0000   0.1289
  -2.400  -0.1253   0.01016   0.00396  -0.0143  0.7810  0.5073  -1.2115   0.0000   0.1242
  -2.200  -0.1071   0.00996   0.00387  -0.0132  0.7647  0.5561  -1.1383   0.0000   0.1147
  -2.000  -0.0883   0.00982   0.00381  -0.0122  0.7483  0.5944  -1.0647   0.0000   0.0992
  -1.800  -0.0690   0.00973   0.00375  -0.0113  0.7317  0.6279  -0.9929   0.0000   0.0728
  -1.600  -0.0495   0.00966   0.00370  -0.0104  0.7147  0.6580  -0.9257   0.0000   0.0241
  -1.400  -0.0297   0.00961   0.00368  -0.0095  0.6974  0.6851  -0.8590   0.0000  -0.0916
  -1.200  -0.0099   0.00959   0.00367  -0.0087  0.6800  0.7105  -0.7930   0.0000  -0.6770
  -1.000   0.0101   0.00959   0.00366  -0.0078  0.6626  0.7345  -0.7279   0.0000   1.0577
  -0.800   0.0301   0.00962   0.00366  -0.0070  0.6453  0.7576  -0.6932   0.0000   0.4886
  -0.600   0.0503   0.00966   0.00369  -0.0062  0.6278  0.7794  -0.7194   0.0000   0.3734
  -0.400   0.0703   0.00972   0.00373  -0.0053  0.6101  0.8020  -0.7457   0.0000   0.3236
  -0.200   0.0904   0.00981   0.00380  -0.0044  0.5923  0.8229  -0.7722   0.0000   0.2956
   0.000   0.1106   0.00991   0.00384  -0.0036  0.5747  0.8406  -0.7988   0.0000   0.2786
   0.400   0.1528   0.01014   0.00392  -0.0025  0.5392  0.8650  -0.8558   0.0000   0.2614
   0.600   0.1744   0.01028   0.00398  -0.0021  0.5209  0.8757  -0.8851   0.0000   0.2566
   0.800   0.1962   0.01043   0.00404  -0.0018  0.5029  0.8859  -0.9147   0.0000   0.2531
   1.000   0.2181   0.01059   0.00411  -0.0015  0.4853  0.8957  -0.9446   0.0000   0.2506
   1.200   0.2403   0.01075   0.00418  -0.0012  0.4674  0.9053  -0.9757   0.0000   0.2488
   1.400   0.2624   0.01093   0.00426  -0.0010  0.4493  0.9148  -1.0073   0.0000   0.2473
   1.600   0.2856   0.01113   0.00435  -0.0010  0.4316  0.9230  -1.0401   0.0000   0.2469
   1.800   0.3106   0.01134   0.00446  -0.0014  0.4143  0.9298  -1.0744   0.0000   0.2478
   2.000   0.3347   0.01154   0.00457  -0.0017  0.3974  0.9373  -1.1082   0.0000   0.2482
   2.200   0.3596   0.01176   0.00468  -0.0022  0.3809  0.9442  -1.1442   0.0000   0.2490
   2.400   0.3874   0.01199   0.00481  -0.0033  0.3650  0.9490  -1.1831   0.0000   0.2513
   2.600   0.4128   0.01221   0.00493  -0.0039  0.3510  0.9555  -1.2201   0.0000   0.2522
   2.800   0.4431   0.01245   0.00507  -0.0056  0.3375  0.9590  -1.2615   0.0000   0.2553
   3.000   0.4704   0.01267   0.00521  -0.0067  0.3256  0.9645  -1.3015   0.0000   0.2568
   3.200   0.5022   0.01290   0.00535  -0.0088  0.3144  0.9672  -1.3467   0.0000   0.2600
   3.400   0.5298   0.01312   0.00550  -0.0100  0.3052  0.9723  -1.3884   0.0000   0.2612
   3.600   0.5610   0.01336   0.00564  -0.0120  0.2967  0.9751  -1.4338   0.0000   0.2636
   3.800   0.5900   0.01355   0.00579  -0.0136  0.2887  0.9794  -1.4781   0.0000   0.2650
   4.000   0.6204   0.01376   0.00594  -0.0154  0.2816  0.9824  -1.5253   0.0000   0.2667
   4.200   0.6495   0.01397   0.00609  -0.0170  0.2752  0.9863  -1.5718   0.0000   0.2679
   4.400   0.6799   0.01417   0.00625  -0.0189  0.2694  0.9893  -1.6196   0.0000   0.2694
   4.600   0.7094   0.01438   0.00642  -0.0206  0.2637  0.9928  -1.6680   0.0000   0.2705
   4.800   0.7398   0.01458   0.00658  -0.0225  0.2587  0.9954  -1.7189   0.0000   0.2717
   5.000   0.7701   0.01476   0.00674  -0.0244  0.2536  0.9982  -1.7700   0.0000   0.2728
   5.200   0.7952   0.01500   0.00690  -0.0253  0.2497  1.0000  -1.8162   0.0000   0.2727
   5.400   0.8111   0.01514   0.00707  -0.0242  0.2460  1.0000  -1.8533   0.0000   0.2706
   5.600   0.8267   0.01530   0.00722  -0.0231  0.2424  1.0000  -1.8913   0.0000   0.2684
   5.800   0.8418   0.01551   0.00739  -0.0219  0.2393  1.0000  -1.9291   0.0000   0.2663
   6.000   0.8571   0.01572   0.00758  -0.0208  0.2364  1.0000  -1.9669   0.0000   0.2642
   6.200   0.8726   0.01589   0.00777  -0.0196  0.2332  1.0000  -2.0054   0.0000   0.2622
   6.400   0.8879   0.01608   0.00797  -0.0184  0.2302  1.0000  -2.0458   0.0000   0.2602
   6.600   0.9028   0.01634   0.00817  -0.0171  0.2275  1.0000  -2.0862   0.0000   0.2583
   6.800   0.9181   0.01656   0.00840  -0.0159  0.2247  1.0000  -2.1266   0.0000   0.2564
   7.000   0.9335   0.01676   0.00864  -0.0147  0.2218  1.0000  -2.1676   0.0000   0.2546
   7.200   0.9488   0.01698   0.00886  -0.0135  0.2191  1.0000  -2.2108   0.0000   0.2528
   7.400   0.9638   0.01725   0.00909  -0.0123  0.2166  1.0000  -2.2543   0.0000   0.2511
   7.600   0.9792   0.01752   0.00937  -0.0111  0.2141  1.0000  -2.2978   0.0000   0.2494
   7.800   0.9947   0.01774   0.00963  -0.0099  0.2113  1.0000  -2.3426   0.0000   0.2478
   8.000   1.0101   0.01798   0.00989  -0.0088  0.2087  1.0000  -2.3891   0.0000   0.2463
   8.200   1.0255   0.01826   0.01014  -0.0076  0.2064  1.0000  -2.4363   0.0000   0.2448
   8.400   1.0411   0.01859   0.01045  -0.0066  0.2041  1.0000  -2.4842   0.0000   0.2434
   8.600   1.0565   0.01883   0.01077  -0.0054  0.2014  1.0000  -2.5334   0.0000   0.2419
   8.800   1.0719   0.01909   0.01106  -0.0043  0.1989  1.0000  -2.5833   0.0000   0.2405
   9.000   1.0874   0.01937   0.01134  -0.0032  0.1965  1.0000  -2.6354   0.0000   0.2392
   9.200   1.1032   0.01972   0.01165  -0.0022  0.1944  1.0000  -2.6897   0.0000   0.2380
   9.400   1.1187   0.02001   0.01202  -0.0011  0.1920  1.0000  -2.7433   0.0000   0.2367
   9.600   1.1341   0.02030   0.01237  -0.0001  0.1894  1.0000  -2.7998   0.0000   0.2355
   9.800   1.1497   0.02060   0.01269   0.0009  0.1870  1.0000  -2.8581   0.0000   0.2343
  10.000   1.1655   0.02093   0.01301   0.0018  0.1848  1.0000  -2.9197   0.0000   0.2332
  10.200   1.1812   0.02131   0.01341   0.0027  0.1826  1.0000  -2.9832   0.0000   0.2322
  10.400   1.1961   0.02162   0.01382   0.0038  0.1801  1.0000  -3.0468   0.0000   0.2310
  10.600   1.2111   0.02195   0.01420   0.0048  0.1776  1.0000  -3.1147   0.0000   0.2299
  10.800   1.2260   0.02229   0.01454   0.0058  0.1753  1.0000  -3.1863   0.0000   0.2289
  11.000   1.2417   0.02272   0.01492   0.0066  0.1733  1.0000  -3.2621   0.0000   0.2280
  11.200   1.2548   0.02307   0.01542   0.0078  0.1708  1.0000  -3.3349   0.0000   0.2267
  11.400   1.2681   0.02343   0.01586   0.0090  0.1683  1.0000  -3.4108   0.0000   0.2255
  11.600   1.2805   0.02379   0.01625   0.0103  0.1660  1.0000  -3.4889   0.0000   0.2242
  11.800   1.2930   0.02420   0.01664   0.0116  0.1640  1.0000  -3.5682   0.0000   0.2230
  12.000   1.3040   0.02466   0.01717   0.0130  0.1618  1.0000  -3.6475   0.0000   0.2216
  12.200   1.3144   0.02510   0.01773   0.0145  0.1593  1.0000  -3.7261   0.0000   0.2202
  12.400   1.3251   0.02555   0.01823   0.0159  0.1569  1.0000  -3.8068   0.0000   0.2189
  12.600   1.3361   0.02603   0.01871   0.0171  0.1548  1.0000  -3.8920   0.0000   0.2178
  12.800   1.3467   0.02660   0.01932   0.0183  0.1526  1.0000  -3.9778   0.0000   0.2166
  13.000   1.3557   0.02719   0.02004   0.0196  0.1500  1.0000  -4.0594   0.0000   0.2154
  13.200   1.3651   0.02779   0.02071   0.0207  0.1476  1.0000  -4.1431   0.0000   0.2142
  13.400   1.3744   0.02842   0.02135   0.0218  0.1454  1.0000  -4.2279   0.0000   0.2132
  13.600   1.3832   0.02915   0.02213   0.0228  0.1432  1.0000  -4.3145   0.0000   0.2122
  13.800   1.3908   0.02995   0.02307   0.0238  0.1406  1.0000  -4.3981   0.0000   0.2111
  14.000   1.3983   0.03077   0.02396   0.0247  0.1381  1.0000  -4.4831   0.0000   0.2101
  14.200   1.4057   0.03165   0.02484   0.0256  0.1360  1.0000  -4.5687   0.0000   0.2092
  14.400   1.4123   0.03265   0.02592   0.0263  0.1337  1.0000  -4.6503   0.0000   0.2084
  14.600   1.4181   0.03375   0.02715   0.0270  0.1310  1.0000  -4.7290   0.0000   0.2075
  14.800   1.4236   0.03490   0.02837   0.0275  0.1287  1.0000  -4.8077   0.0000   0.2068
  15.000   1.4286   0.03612   0.02959   0.0280  0.1266  1.0000  -4.8878   0.0000   0.2061
  15.200   1.4326   0.03754   0.03113   0.0284  0.1242  1.0000  -4.9651   0.0000   0.2054
  15.400   1.4361   0.03905   0.03276   0.0286  0.1216  1.0000  -5.0406   0.0000   0.2048
  15.600   1.4389   0.04065   0.03441   0.0287  0.1193  1.0000  -5.1144   0.0000   0.2043
  16.000   1.4418   0.04432   0.03825   0.0286  0.1148  1.0000  -5.2492   0.0000   0.2035
  16.200   1.4419   0.04641   0.04045   0.0283  0.1124  1.0000  -5.3105   0.0000   0.2032
  16.400   1.4410   0.04862   0.04270   0.0279  0.1103  1.0000  -5.3680   0.0000   0.2029
  16.600   1.4391   0.05099   0.04511   0.0275  0.1083  1.0000  -5.4208   0.0000   0.2027
  16.800   1.4361   0.05366   0.04794   0.0267  0.1059  1.0000  -5.4659   0.0000   0.2027
  17.000   1.4322   0.05650   0.05087   0.0259  0.1037  1.0000  -5.5070   0.0000   0.2027
  17.200   1.4273   0.05946   0.05386   0.0249  0.1018  1.0000  -5.5443   0.0000   0.2028
  17.400   1.4212   0.06267   0.05715   0.0238  0.0998  1.0000  -5.5741   0.0000   0.2029
  17.600   1.4136   0.06625   0.06088   0.0224  0.0975  1.0000  -5.5941   0.0000   0.2033
  17.800   1.4050   0.06998   0.06469   0.0209  0.0955  1.0000  -5.6118   0.0000   0.2037
  18.000   1.3963   0.07372   0.06847   0.0194  0.0937  1.0000  -5.6298   0.0000   0.2042
  18.200   1.3860   0.07781   0.07265   0.0177  0.0919  1.0000  -5.6369   0.0000   0.2047
  18.400   1.3735   0.08238   0.07735   0.0157  0.0898  1.0000  -5.6295   0.0000   0.2055
  18.600   1.3608   0.08699   0.08205   0.0136  0.0879  1.0000  -5.6209   0.0000   0.2064
  18.800   1.3498   0.09130   0.08639   0.0117  0.0862  1.0000  -5.6209   0.0000   0.2072
  19.000   1.3370   0.09601   0.09118   0.0095  0.0844  1.0000  -5.6070   0.0000   0.2082
  19.200   1.3202   0.10151   0.09681   0.0069  0.0825  1.0000  -5.5678   0.0000   0.2096
  19.400   1.3056   0.10668   0.10206   0.0044  0.0806  1.0000  -5.5394   0.0000   0.2109
  19.600   1.2967   0.11085   0.10623   0.0024  0.0788  1.0000  -5.5426   0.0000   0.2119
  19.800   1.2830   0.11592   0.11137  -0.0002  0.0770  1.0000  -5.5140   0.0000   0.2133
  20.000   1.2650   0.12191   0.11748  -0.0032  0.0751  1.0000  -5.4549   0.0000   0.2153
  20.200   1.2527   0.12693   0.12256  -0.0059  0.0732  1.0000  -5.4281   0.0000   0.2169
  20.400   1.2525   0.12967   0.12525  -0.0074  0.0713  1.0000  -5.4771   0.0000   0.2175
  20.600   1.2341   0.13591   0.13161  -0.0108  0.0695  1.0000  -5.4040   0.0000   0.2199
  20.800   1.2191   0.14164   0.13743  -0.0140  0.0675  1.0000  -5.3487   0.0000   0.2222
  21.000   1.2150   0.14531   0.14110  -0.0161  0.0657  1.0000  -5.3644   0.0000   0.2235
  21.200   1.2151   0.14814   0.14391  -0.0178  0.0639  1.0000  -5.4070   0.0000   0.2243
  21.400   1.1958   0.15498   0.15089  -0.0219  0.0620  1.0000  -5.3084   0.0000   0.2275
  21.600   1.1882   0.15954   0.15549  -0.0247  0.0601  1.0000  -5.2897   0.0000   0.2296
  21.800   1.1968   0.16071   0.15660  -0.0256  0.0585  1.0000  -5.3905   0.0000   0.2295
  22.000   1.1827   0.16667   0.16264  -0.0293  0.0567  1.0000  -5.3169   0.0000   0.2325
  22.200   1.1683   0.17281   0.16888  -0.0332  0.0549  1.0000  -5.2348   0.0000   0.2357
  22.400   1.1702   0.17546   0.17152  -0.0351  0.0533  1.0000  -5.2803   0.0000   0.2367
  22.600   1.1848   0.17529   0.17127  -0.0351  0.0519  1.0000  -5.4280   0.0000   0.2357
  22.800   1.1556   0.18498   0.18115  -0.0414  0.0501  1.0000  -5.2080   0.0000   0.2417
  23.000   1.1459   0.19047   0.18670  -0.0451  0.0484  1.0000  -5.1434   0.0000   0.2448
  23.200   1.1566   0.19116   0.18736  -0.0458  0.0472  1.0000  -5.2591   0.0000   0.2444
  23.400   1.1752   0.18991   0.18601  -0.0453  0.0462  1.0000  -5.4557   0.0000   0.2426
  23.600   1.0756   0.21860   0.21505  -0.0633  0.0418  1.0000  -4.4632   0.0000   0.2641
  23.800   1.1028   0.21467   0.21109  -0.0615  0.0418  1.0000  -4.7695   0.0000   0.2599
  24.000   1.1314   0.21052   0.20689  -0.0594  0.0415  1.0000  -5.0864   0.0000   0.2556
  24.200   1.1587   0.20684   0.20311  -0.0575  0.0409  1.0000  -5.3842   0.0000   0.2517


