xflr5 v6.47

 Calculated polar for: NACA24018_theta30_Ku4.5_Kl0.5_d0.21_delta5.84

 1 1 Reynolds number fixed          Mach number fixed         

 xtrf =   1.000 (top)        1.000 (bottom)
 Mach =   0.000     Re =     1.600 e 6     Ncrit =   5.000

  alpha     CL        CD       CDp       Cm    Top Xtr Bot Xtr   Cpmin    Chinge    XCp    
 ------- -------- --------- --------- -------- ------- ------- -------- --------- ---------
 -15.000  -0.8571   0.03081   0.02624  -0.1002  0.8860  0.0304  -6.0229   0.0000   0.1089
 -14.800  -0.8368   0.03049   0.02591  -0.1008  0.8859  0.0308  -5.8863   0.0000   0.1054
 -14.600  -0.8157   0.03019   0.02561  -0.1015  0.8858  0.0312  -5.7477   0.0000   0.1015
 -14.400  -0.7937   0.02995   0.02535  -0.1022  0.8857  0.0316  -5.6074   0.0000   0.0972
 -14.200  -0.7705   0.02972   0.02512  -0.1031  0.8855  0.0320  -5.4641   0.0000   0.0922
 -14.000  -0.7452   0.02948   0.02487  -0.1043  0.8852  0.0323  -5.3147   0.0000   0.0860
 -13.800  -0.7177   0.02919   0.02459  -0.1058  0.8848  0.0329  -5.1605   0.0000   0.0783
 -13.600  -0.6886   0.02892   0.02432  -0.1076  0.8843  0.0335  -5.0026   0.0000   0.0693
 -13.400  -0.6581   0.02865   0.02405  -0.1096  0.8839  0.0342  -4.8477   0.0000   0.0588
 -13.200  -0.6258   0.02838   0.02378  -0.1117  0.8835  0.0349  -4.6889   0.0000   0.0464
 -13.000  -0.5918   0.02809   0.02350  -0.1141  0.8831  0.0356  -4.5268   0.0000   0.0315
 -12.800  -0.5557   0.02779   0.02319  -0.1168  0.8828  0.0364  -4.3610   0.0000   0.0134
 -12.600  -0.5399   0.02750   0.02292  -0.1163  0.8783  0.0371  -4.2568   0.0000   0.0082
 -12.400  -0.5086   0.02725   0.02268  -0.1183  0.8773  0.0379  -4.1085   0.0000  -0.0095
 -12.200  -0.4762   0.02700   0.02243  -0.1204  0.8765  0.0388  -3.9590   0.0000  -0.0306
 -12.000  -0.4428   0.02674   0.02217  -0.1226  0.8759  0.0396  -3.8088   0.0000  -0.0556
 -11.800  -0.4087   0.02648   0.02191  -0.1249  0.8755  0.0405  -3.6590   0.0000  -0.0858
 -11.600  -0.3744   0.02623   0.02168  -0.1273  0.8751  0.0417  -3.5107   0.0000  -0.1217
 -11.400  -0.3402   0.02598   0.02144  -0.1296  0.8748  0.0430  -3.3645   0.0000  -0.1647
 -11.200  -0.3004   0.02551   0.02097  -0.1328  0.8743  0.0442  -3.2097   0.0000  -0.2287
 -11.000  -0.2830   0.02559   0.02108  -0.1324  0.8710  0.0451  -3.1159   0.0000  -0.2555
 -10.800  -0.2535   0.02540   0.02090  -0.1339  0.8687  0.0464  -2.9935   0.0000  -0.3187
 -10.600  -0.2204   0.02515   0.02065  -0.1359  0.8673  0.0478  -2.8642   0.0000  -0.4118
 -10.400  -0.1870   0.02492   0.02044  -0.1381  0.8664  0.0492  -2.7362   0.0000  -0.5396
  -8.800   0.0396   0.02491   0.02051  -0.1480  0.8049  0.0635  -1.8996   0.0000   4.1705
  -8.600   0.1221   0.02257   0.01799  -0.1583  0.7743  0.0689  -1.7086   0.0000   1.6021
  -8.400   0.1369   0.02288   0.01800  -0.1572  0.7055  0.0712  -1.6431   0.0000   1.4454
  -8.200   0.1552   0.02326   0.01824  -0.1567  0.6687  0.0739  -1.5719   0.0000   1.2992
  -8.000   0.1763   0.02355   0.01840  -0.1567  0.6375  0.0763  -1.4970   0.0000   1.1721
  -7.800   0.2007   0.02379   0.01855  -0.1572  0.6104  0.0798  -1.4174   0.0000   1.0615
  -7.600   0.2258   0.02398   0.01867  -0.1579  0.5876  0.0835  -1.3377   0.0000   0.9730
  -7.400   0.2523   0.02417   0.01879  -0.1588  0.5680  0.0880  -1.2570   0.0000   0.8995
  -7.200   0.2791   0.02434   0.01891  -0.1598  0.5493  0.0927  -1.1812   0.0000   0.8397
  -7.000   0.3057   0.02450   0.01901  -0.1607  0.5308  0.0981  -1.1103   0.0000   0.7905
  -6.800   0.3336   0.02467   0.01913  -0.1618  0.5112  0.1046  -1.0385   0.0000   0.7480
  -6.600   0.3618   0.02484   0.01924  -0.1630  0.4920  0.1120  -0.9674   0.0000   0.7117
  -6.200   0.4189   0.02516   0.01948  -0.1655  0.4585  0.1289  -0.8320   0.0000   0.6535
  -6.000   0.4490   0.02535   0.01964  -0.1671  0.4426  0.1411  -0.8508   0.0000   0.6292
  -5.800   0.4790   0.02556   0.01982  -0.1686  0.4271  0.1547  -0.8800   0.0000   0.6081
  -5.600   0.5110   0.02581   0.02007  -0.1705  0.4128  0.1743  -0.9109   0.0000   0.5889
  -5.400   0.5457   0.02613   0.02041  -0.1729  0.3999  0.2011  -0.9445   0.0000   0.5713
  -5.200   0.5892   0.02661   0.02097  -0.1771  0.3860  0.2519  -0.9852   0.0000   0.5541
  -5.000   0.6428   0.02732   0.02182  -0.1832  0.3709  0.3295  -1.0336   0.0000   0.5378
  -4.800   0.6826   0.02781   0.02235  -0.1865  0.3601  0.3719  -1.0740   0.0000   0.5254
  -4.600   0.7173   0.02821   0.02278  -0.1889  0.3519  0.3981  -1.1111   0.0000   0.5149
  -4.400   0.7481   0.02854   0.02310  -0.1904  0.3425  0.4165  -1.1456   0.0000   0.5057
  -4.200   0.7768   0.02883   0.02338  -0.1916  0.3352  0.4312  -1.1787   0.0000   0.4974
  -4.000   0.8076   0.02918   0.02373  -0.1932  0.3287  0.4474  -1.2137   0.0000   0.4894
  -3.800   0.8393   0.02955   0.02410  -0.1949  0.3220  0.4653  -1.2495   0.0000   0.4820
  -3.600   0.8702   0.02993   0.02448  -0.1964  0.3176  0.4804  -1.2851   0.0000   0.4752
  -3.400   0.9020   0.03033   0.02489  -0.1982  0.3125  0.4981  -1.3216   0.0000   0.4687
  -3.200   0.9292   0.03062   0.02516  -0.1990  0.3064  0.5107  -1.3561   0.0000   0.4629
  -3.000   0.9582   0.03096   0.02549  -0.2002  0.3010  0.5209  -1.3937   0.0000   0.4573
  -2.800   0.9824   0.03119   0.02571  -0.2005  0.2964  0.5268  -1.4275   0.0000   0.4521
  -2.600   1.0058   0.03141   0.02590  -0.2006  0.2917  0.5308  -1.4609   0.0000   0.4471
  -2.400   1.0313   0.03169   0.02615  -0.2011  0.2868  0.5358  -1.4961   0.0000   0.4424
  -2.200   1.0555   0.03194   0.02640  -0.2014  0.2841  0.5403  -1.5305   0.0000   0.4378
  -2.000   1.0789   0.03218   0.02663  -0.2015  0.2813  0.5447  -1.5643   0.0000   0.4335
  -1.800   1.1015   0.03240   0.02683  -0.2015  0.2779  0.5486  -1.5977   0.0000   0.4293
  -1.600   1.1259   0.03267   0.02709  -0.2018  0.2738  0.5533  -1.6338   0.0000   0.4253
  -1.400   1.1502   0.03295   0.02735  -0.2021  0.2690  0.5581  -1.6720   0.0000   0.4215
  -1.200   1.1735   0.03321   0.02760  -0.2022  0.2661  0.5623  -1.7095   0.0000   0.4178
  -1.000   1.1959   0.03345   0.02783  -0.2021  0.2625  0.5661  -1.7463   0.0000   0.4142
  -0.800   1.2176   0.03367   0.02803  -0.2020  0.2588  0.5692  -1.7826   0.0000   0.4108
  -0.600   1.2416   0.03397   0.02831  -0.2022  0.2550  0.5738  -1.8215   0.0000   0.4074
  -0.400   1.2653   0.03427   0.02861  -0.2024  0.2523  0.5788  -1.8601   0.0000   0.4042
  -0.200   1.2879   0.03453   0.02888  -0.2023  0.2502  0.5833  -1.8980   0.0000   0.4011
   0.000   1.3096   0.03478   0.02912  -0.2021  0.2476  0.5870  -1.9352   0.0000   0.3981
   0.200   1.3308   0.03503   0.02935  -0.2019  0.2444  0.5900  -1.9720   0.0000   0.3951
   0.400   1.3536   0.03533   0.02964  -0.2019  0.2406  0.5940  -2.0112   0.0000   0.3923
   0.600   1.3760   0.03563   0.02994  -0.2018  0.2370  0.5984  -2.0519   0.0000   0.3895
   0.800   1.3980   0.03592   0.03023  -0.2017  0.2346  0.6028  -2.0949   0.0000   0.3868
   1.000   1.4191   0.03620   0.03050  -0.2014  0.2315  0.6067  -2.1374   0.0000   0.3841
   1.200   1.4396   0.03647   0.03075  -0.2010  0.2282  0.6096  -2.1792   0.0000   0.3815
   1.400   1.4613   0.03680   0.03107  -0.2008  0.2244  0.6134  -2.2226   0.0000   0.3790
   1.600   1.4830   0.03712   0.03139  -0.2006  0.2218  0.6176  -2.2664   0.0000   0.3766
   1.800   1.5044   0.03743   0.03171  -0.2003  0.2198  0.6218  -2.3099   0.0000   0.3742
   2.000   1.5250   0.03773   0.03202  -0.2000  0.2173  0.6254  -2.3528   0.0000   0.3719
   2.200   1.5450   0.03803   0.03231  -0.1995  0.2145  0.6284  -2.3953   0.0000   0.3696
   2.400   1.5648   0.03835   0.03262  -0.1990  0.2112  0.6311  -2.4377   0.0000   0.3673
   2.600   1.5852   0.03869   0.03295  -0.1985  0.2081  0.6346  -2.4825   0.0000   0.3651
   2.800   1.6055   0.03902   0.03330  -0.1981  0.2057  0.6384  -2.5277   0.0000   0.3629
   3.000   1.6253   0.03936   0.03364  -0.1976  0.2027  0.6421  -2.5741   0.0000   0.3608
   3.200   1.6444   0.03971   0.03397  -0.1970  0.1992  0.6455  -2.6210   0.0000   0.3587
   3.400   1.6630   0.04008   0.03432  -0.1963  0.1956  0.6482  -2.6682   0.0000   0.3566
   3.600   1.6822   0.04042   0.03467  -0.1957  0.1933  0.6510  -2.7182   0.0000   0.3546
   3.800   1.7011   0.04080   0.03506  -0.1950  0.1907  0.6545  -2.7683   0.0000   0.3526
   4.000   1.7192   0.04120   0.03547  -0.1942  0.1876  0.6577  -2.8182   0.0000   0.3506
   4.200   1.7365   0.04164   0.03589  -0.1933  0.1843  0.6607  -2.8702   0.0000   0.3486
   4.400   1.7539   0.04207   0.03632  -0.1924  0.1814  0.6634  -2.9225   0.0000   0.3467
   4.600   1.7716   0.04249   0.03676  -0.1916  0.1790  0.6661  -2.9758   0.0000   0.3448
   4.800   1.7892   0.04294   0.03721  -0.1908  0.1762  0.6686  -3.0291   0.0000   0.3429
   5.000   1.8059   0.04340   0.03767  -0.1898  0.1730  0.6711  -3.0813   0.0000   0.3410
   5.200   1.8218   0.04387   0.03813  -0.1887  0.1696  0.6739  -3.1379   0.0000   0.3391
   5.400   1.8383   0.04429   0.03857  -0.1876  0.1670  0.6765  -3.1963   0.0000   0.3373
   5.600   1.8542   0.04476   0.03904  -0.1865  0.1633  0.6792  -3.2541   0.0000   0.3355
   5.800   1.8696   0.04530   0.03956  -0.1854  0.1595  0.6819  -3.3113   0.0000   0.3337
   6.000   1.8857   0.04580   0.04008  -0.1843  0.1570  0.6846  -3.3701   0.0000   0.3319
   6.200   1.9020   0.04632   0.04060  -0.1833  0.1545  0.6869  -3.4309   0.0000   0.3302
   6.400   1.9169   0.04693   0.04120  -0.1821  0.1509  0.6887  -3.4968   0.0000   0.3285
   6.600   1.9296   0.04763   0.04189  -0.1806  0.1467  0.6906  -3.5591   0.0000   0.3267
   6.800   1.9429   0.04820   0.04248  -0.1792  0.1438  0.6931  -3.6227   0.0000   0.3249
   7.000   1.9557   0.04882   0.04311  -0.1777  0.1404  0.6955  -3.6875   0.0000   0.3232
   7.200   1.9679   0.04949   0.04378  -0.1761  0.1372  0.6977  -3.7520   0.0000   0.3214
   7.400   1.9813   0.05011   0.04442  -0.1747  0.1347  0.6998  -3.8237   0.0000   0.3197
   7.600   1.9945   0.05077   0.04509  -0.1733  0.1317  0.7018  -3.8963   0.0000   0.3181
   7.800   2.0059   0.05157   0.04589  -0.1717  0.1281  0.7036  -3.9724   0.0000   0.3164
   8.000   2.0171   0.05244   0.04675  -0.1701  0.1250  0.7055  -4.0487   0.0000   0.3147
   8.200   2.0292   0.05328   0.04761  -0.1686  0.1217  0.7074  -4.1275   0.0000   0.3131
   8.400   2.0399   0.05427   0.04858  -0.1670  0.1176  0.7089  -4.2036   0.0000   0.3114
   8.600   2.0496   0.05509   0.04942  -0.1652  0.1143  0.7107  -4.2775   0.0000   0.3098
   8.800   2.0573   0.05604   0.05037  -0.1632  0.1105  0.7125  -4.3472   0.0000   0.3081
   9.000   2.0636   0.05714   0.05148  -0.1610  0.1070  0.7142  -4.4138   0.0000   0.3063
   9.200   2.0719   0.05808   0.05245  -0.1592  0.1040  0.7161  -4.4856   0.0000   0.3047
   9.400   2.0796   0.05913   0.05350  -0.1573  0.1011  0.7179  -4.5562   0.0000   0.3031
   9.600   2.0861   0.06031   0.05471  -0.1553  0.0986  0.7197  -4.6246   0.0000   0.3015
   9.800   2.0940   0.06143   0.05585  -0.1535  0.0962  0.7214  -4.7000   0.0000   0.2999
  10.000   2.1009   0.06266   0.05710  -0.1517  0.0933  0.7229  -4.7778   0.0000   0.2983
  10.200   2.1062   0.06410   0.05855  -0.1498  0.0907  0.7243  -4.8515   0.0000   0.2968
  10.400   2.1129   0.06545   0.05993  -0.1481  0.0880  0.7256  -4.9294   0.0000   0.2953
  10.600   2.1169   0.06710   0.06159  -0.1463  0.0849  0.7269  -5.0009   0.0000   0.2938
  10.800   2.1221   0.06873   0.06323  -0.1446  0.0821  0.7281  -5.0780   0.0000   0.2923
  11.000   2.1238   0.07037   0.06491  -0.1426  0.0793  0.7295  -5.1449   0.0000   0.2908
  11.200   2.1233   0.07217   0.06673  -0.1404  0.0768  0.7308  -5.2052   0.0000   0.2894
  11.400   2.1250   0.07379   0.06840  -0.1385  0.0746  0.7321  -5.2720   0.0000   0.2879
  11.600   2.1249   0.07567   0.07031  -0.1367  0.0722  0.7333  -5.3333   0.0000   0.2865
  11.800   2.1237   0.07772   0.07240  -0.1349  0.0702  0.7344  -5.3914   0.0000   0.2852
  12.000   2.1241   0.07963   0.07435  -0.1333  0.0682  0.7355  -5.4544   0.0000   0.2840
  12.200   2.1230   0.08175   0.07652  -0.1318  0.0661  0.7367  -5.5126   0.0000   0.2827
  12.400   2.1209   0.08405   0.07886  -0.1305  0.0643  0.7379  -5.5672   0.0000   0.2816
  12.600   2.1203   0.08625   0.08111  -0.1293  0.0626  0.7393  -5.6270   0.0000   0.2805
  12.800   2.1184   0.08868   0.08359  -0.1283  0.0607  0.7406  -5.6842   0.0000   0.2795
  13.000   2.1149   0.09137   0.08632  -0.1275  0.0589  0.7417  -5.7355   0.0000   0.2787
  13.200   2.1141   0.09379   0.08878  -0.1268  0.0573  0.7429  -5.7956   0.0000   0.2778
  13.400   2.1113   0.09648   0.09153  -0.1263  0.0555  0.7440  -5.8483   0.0000   0.2770
  13.600   2.1063   0.09947   0.09456  -0.1260  0.0539  0.7448  -5.8930   0.0000   0.2764
  13.800   2.1034   0.10224   0.09739  -0.1259  0.0526  0.7457  -5.9441   0.0000   0.2758
  14.000   2.1001   0.10508   0.10029  -0.1259  0.0512  0.7464  -5.9931   0.0000   0.2753
  14.200   2.0953   0.10809   0.10335  -0.1261  0.0499  0.7471  -6.0360   0.0000   0.2749
  14.400   2.0875   0.11111   0.10643  -0.1262  0.0488  0.7480  -6.0674   0.0000   0.2745
  14.600   2.0822   0.11382   0.10921  -0.1263  0.0478  0.7490  -6.1078   0.0000   0.2741
  14.800   2.0752   0.11677   0.11223  -0.1267  0.0467  0.7499  -6.1439   0.0000   0.2738
  15.000   2.0671   0.11992   0.11544  -0.1273  0.0456  0.7508  -6.1741   0.0000   0.2737
  15.200   2.0578   0.12326   0.11885  -0.1282  0.0446  0.7516  -6.1984   0.0000   0.2737
  15.400   2.0498   0.12645   0.12211  -0.1291  0.0437  0.7524  -6.2269   0.0000   0.2738
  15.600   2.0426   0.12956   0.12529  -0.1302  0.0428  0.7532  -6.2575   0.0000   0.2738
  15.800   2.0346   0.13283   0.12863  -0.1315  0.0417  0.7539  -6.2834   0.0000   0.2740
  16.000   2.0254   0.13629   0.13216  -0.1330  0.0407  0.7547  -6.3031   0.0000   0.2744
  16.200   2.0155   0.13991   0.13584  -0.1348  0.0399  0.7554  -6.3176   0.0000   0.2749
  16.400   2.0074   0.14330   0.13931  -0.1366  0.0391  0.7562  -6.3393   0.0000   0.2753
  16.600   1.9991   0.14678   0.14286  -0.1386  0.0383  0.7570  -6.3583   0.0000   0.2758
  16.800   1.9907   0.15030   0.14643  -0.1407  0.0375  0.7578  -6.3760   0.0000   0.2764
  17.000   1.9823   0.15385   0.15005  -0.1429  0.0367  0.7586  -6.3915   0.0000   0.2771
  17.200   1.9726   0.15764   0.15390  -0.1455  0.0359  0.7595  -6.3995   0.0000   0.2780
  17.400   1.9652   0.16111   0.15743  -0.1479  0.0353  0.7604  -6.4172   0.0000   0.2788
  17.600   1.9594   0.16434   0.16073  -0.1502  0.0345  0.7614  -6.4417   0.0000   0.2794
  17.800   1.9511   0.16799   0.16443  -0.1529  0.0338  0.7623  -6.4523   0.0000   0.2804
  18.000   1.9426   0.17170   0.16820  -0.1559  0.0330  0.7632  -6.4600   0.0000   0.2814
  18.200   1.9363   0.17507   0.17161  -0.1585  0.0323  0.7640  -6.4778   0.0000   0.2823
  18.400   1.9300   0.17847   0.17508  -0.1613  0.0317  0.7647  -6.4941   0.0000   0.2832
  18.600   1.9257   0.18130   0.17796  -0.1636  0.0311  0.7654  -6.5220   0.0000   0.2838
  18.800   1.9172   0.18463   0.18134  -0.1662  0.0305  0.7661  -6.5262   0.0000   0.2848
  19.000   1.9114   0.18746   0.18422  -0.1685  0.0298  0.7668  -6.5451   0.0000   0.2855
  19.200   1.9026   0.19082   0.18764  -0.1714  0.0293  0.7674  -6.5455   0.0000   0.2866
  19.400   1.8979   0.19347   0.19033  -0.1735  0.0287  0.7680  -6.5685   0.0000   0.2872
  19.600   1.8924   0.19626   0.19318  -0.1759  0.0282  0.7687  -6.5854   0.0000   0.2879
  19.800   1.8876   0.19891   0.19587  -0.1782  0.0276  0.7694  -6.6059   0.0000   0.2886
  20.000   1.8836   0.20141   0.19841  -0.1804  0.0269  0.7702  -6.6307   0.0000   0.2892
  20.200   1.8760   0.20458   0.20163  -0.1833  0.0264  0.7709  -6.6356   0.0000   0.2903
  20.400   1.8719   0.20714   0.20422  -0.1857  0.0258  0.7718  -6.6617   0.0000   0.2910
  20.600   1.8677   0.20981   0.20694  -0.1882  0.0253  0.7726  -6.6852   0.0000   0.2917
  20.800   1.8647   0.21230   0.20947  -0.1906  0.0248  0.7734  -6.7155   0.0000   0.2924
  21.000   1.8626   0.21464   0.21185  -0.1929  0.0242  0.7742  -6.7515   0.0000   0.2929
  21.200   1.8575   0.21755   0.21481  -0.1959  0.0237  0.7750  -6.7656   0.0000   0.2939
  21.400   1.8544   0.22012   0.21741  -0.1985  0.0232  0.7758  -6.7920   0.0000   0.2947
  21.600   1.8525   0.22248   0.21980  -0.2009  0.0227  0.7766  -6.8265   0.0000   0.2953
  21.800   1.8492   0.22515   0.22251  -0.2038  0.0223  0.7774  -6.8487   0.0000   0.2962
  22.000   1.8480   0.22742   0.22482  -0.2062  0.0219  0.7783  -6.8864   0.0000   0.2967
  22.200   1.8471   0.22966   0.22709  -0.2086  0.0214  0.7791  -6.9251   0.0000   0.2972
  22.400   1.8431   0.23249   0.22996  -0.2117  0.0209  0.7799  -6.9394   0.0000   0.2983
  22.600   1.8412   0.23496   0.23246  -0.2145  0.0205  0.7806  -6.9681   0.0000   0.2990
  22.800   1.8403   0.23722   0.23474  -0.2171  0.0201  0.7814  -7.0045   0.0000   0.2996
  23.000   1.8381   0.23976   0.23733  -0.2200  0.0197  0.7820  -7.0287   0.0000   0.3005
  23.200   1.8361   0.24181   0.23941  -0.2223  0.0193  0.7828  -7.0596   0.0000   0.3010
  23.400   1.8342   0.24375   0.24138  -0.2244  0.0188  0.7835  -7.0919   0.0000   0.3014
  23.600   1.8295   0.24623   0.24390  -0.2272  0.0184  0.7841  -7.1006   0.0000   0.3023
  23.800   1.8259   0.24851   0.24621  -0.2298  0.0179  0.7847  -7.1161   0.0000   0.3031
  24.000   1.8239   0.25046   0.24818  -0.2320  0.0175  0.7853  -7.1453   0.0000   0.3036
  24.200   1.8214   0.25252   0.25029  -0.2344  0.0172  0.7858  -7.1688   0.0000   0.3042
  24.400   1.8189   0.25461   0.25241  -0.2369  0.0169  0.7864  -7.1911   0.0000   0.3048
  24.600   1.8176   0.25645   0.25428  -0.2390  0.0165  0.7869  -7.2237   0.0000   0.3052
  24.800   1.8158   0.25844   0.25629  -0.2414  0.0162  0.7875  -7.2506   0.0000   0.3057
  25.000   1.8118   0.26089   0.25878  -0.2445  0.0158  0.7881  -7.2552   0.0000   0.3067


