xflr5 v6.47

 Calculated polar for: NACA24018_theta30_Ku4.5_Kl0.5_d0.10_delta2.45

 1 1 Reynolds number fixed          Mach number fixed         

 xtrf =   1.000 (top)        1.000 (bottom)
 Mach =   0.000     Re =     1.400 e 6     Ncrit =   5.000

  alpha     CL        CD       CDp       Cm    Top Xtr Bot Xtr   Cpmin    Chinge    XCp    
 ------- -------- --------- --------- -------- ------- ------- -------- --------- ---------
 -15.000  -1.0493   0.02751   0.02252  -0.0821  0.9690  0.0263  -6.8290   0.0000   0.1485
 -14.800  -1.0337   0.02692   0.02192  -0.0821  0.9677  0.0267  -6.7016   0.0000   0.1476
 -14.400  -1.0034   0.02563   0.02059  -0.0818  0.9629  0.0274  -6.4524   0.0000   0.1462
 -14.200  -0.9859   0.02510   0.02004  -0.0819  0.9616  0.0277  -6.3206   0.0000   0.1448
 -14.000  -0.9662   0.02467   0.01959  -0.0824  0.9609  0.0281  -6.1818   0.0000   0.1428
 -13.800  -0.9560   0.02392   0.01882  -0.0811  0.9571  0.0283  -6.0770   0.0000   0.1437
 -13.600  -0.9392   0.02343   0.01830  -0.0809  0.9557  0.0286  -5.9502   0.0000   0.1426
 -13.400  -0.9209   0.02297   0.01783  -0.0810  0.9549  0.0289  -5.8192   0.0000   0.1410
 -13.200  -0.9021   0.02251   0.01736  -0.0812  0.9542  0.0294  -5.6880   0.0000   0.1391
 -13.000  -0.8993   0.02179   0.01662  -0.0784  0.9501  0.0297  -5.6102   0.0000   0.1424
 -12.800  -0.8840   0.02130   0.01612  -0.0778  0.9488  0.0301  -5.4915   0.0000   0.1418
 -12.600  -0.8673   0.02087   0.01567  -0.0775  0.9479  0.0306  -5.3688   0.0000   0.1408
 -12.400  -0.8651   0.02028   0.01507  -0.0744  0.9443  0.0309  -5.2941   0.0000   0.1446
 -12.200  -0.8509   0.01981   0.01459  -0.0734  0.9424  0.0314  -5.1804   0.0000   0.1445
 -12.000  -0.8310   0.01940   0.01416  -0.0735  0.9413  0.0319  -5.0500   0.0000   0.1426
 -11.800  -0.8098   0.01902   0.01377  -0.0737  0.9406  0.0323  -4.9213   0.0000   0.1402
 -11.600  -0.8027   0.01851   0.01325  -0.0713  0.9360  0.0326  -4.8366   0.0000   0.1428
 -11.400  -0.7842   0.01805   0.01279  -0.0710  0.9340  0.0332  -4.7187   0.0000   0.1412
 -11.200  -0.7768   0.01760   0.01234  -0.0686  0.9275  0.0337  -4.6343   0.0000   0.1437
 -10.800  -0.7524   0.01695   0.01169  -0.0655  0.9112  0.0347  -4.4382   0.0000   0.1455
 -10.600  -0.7303   0.01662   0.01135  -0.0657  0.9080  0.0353  -4.3125   0.0000   0.1426
 -10.400  -0.7063   0.01628   0.01101  -0.0662  0.9057  0.0360  -4.1828   0.0000   0.1389
 -10.200  -0.6838   0.01598   0.01070  -0.0664  0.9013  0.0366  -4.0589   0.0000   0.1356
 -10.000  -0.6586   0.01562   0.01034  -0.0672  0.8977  0.0375  -3.9291   0.0000   0.1307
  -9.800  -0.6310   0.01523   0.00996  -0.0683  0.8948  0.0385  -3.7941   0.0000   0.1244
  -9.600  -0.6027   0.01486   0.00959  -0.0696  0.8897  0.0394  -3.6606   0.0000   0.1170
  -9.400  -0.5687   0.01441   0.00913  -0.0719  0.8841  0.0404  -3.5182   0.0000   0.1058
  -9.200  -0.5290   0.01386   0.00855  -0.0753  0.8749  0.0414  -3.3638   0.0000   0.0895
  -9.000  -0.4801   0.01315   0.00780  -0.0806  0.8591  0.0430  -3.1898   0.0000   0.0632
  -8.800  -0.4369   0.01262   0.00718  -0.0848  0.8363  0.0446  -3.0325   0.0000   0.0361
  -8.600  -0.4099   0.01238   0.00684  -0.0858  0.8123  0.0456  -2.9184   0.0000   0.0205
  -8.400  -0.3882   0.01222   0.00660  -0.0858  0.7899  0.0468  -2.8204   0.0000   0.0084
  -8.200  -0.3677   0.01209   0.00640  -0.0856  0.7671  0.0482  -2.7261   0.0000  -0.0036
  -8.000  -0.3477   0.01200   0.00623  -0.0852  0.7449  0.0497  -2.6338   0.0000  -0.0164
  -7.800  -0.3270   0.01193   0.00608  -0.0850  0.7242  0.0511  -2.5411   0.0000  -0.0317
  -7.600  -0.3056   0.01184   0.00594  -0.0849  0.7045  0.0526  -2.4482   0.0000  -0.0502
  -7.400  -0.2838   0.01176   0.00580  -0.0849  0.6847  0.0545  -2.3554   0.0000  -0.0723
  -7.200  -0.2616   0.01170   0.00567  -0.0850  0.6660  0.0562  -2.2630   0.0000  -0.0989
  -7.000  -0.2387   0.01163   0.00555  -0.0852  0.6496  0.0578  -2.1706   0.0000  -0.1318
  -6.800  -0.2154   0.01156   0.00543  -0.0854  0.6326  0.0602  -2.0783   0.0000  -0.1732
  -6.600  -0.1920   0.01150   0.00533  -0.0857  0.6151  0.0626  -1.9872   0.0000  -0.2249
  -6.400  -0.1684   0.01146   0.00523  -0.0860  0.5977  0.0646  -1.8969   0.0000  -0.2919
  -6.200  -0.1441   0.01140   0.00513  -0.0865  0.5816  0.0674  -1.8067   0.0000  -0.3846
  -6.000  -0.1198   0.01136   0.00504  -0.0869  0.5669  0.0700  -1.7224   0.0000  -0.5148
  -5.800  -0.0953   0.01132   0.00496  -0.0874  0.5515  0.0731  -1.6423   0.0000  -0.7146
  -5.600  -0.0705   0.01128   0.00488  -0.0880  0.5356  0.0769  -1.5629   0.0000  -1.0583
  -5.400  -0.0459   0.01126   0.00482  -0.0885  0.5201  0.0802  -1.4851   0.0000  -1.7654
  -5.200  -0.0209   0.01122   0.00475  -0.0891  0.5060  0.0845  -1.4115   0.0000  -4.2007
  -5.000   0.0037   0.01121   0.00470  -0.0895  0.4918  0.0882  -1.3395   0.0000  25.3570
  -4.800   0.0289   0.01119   0.00465  -0.0902  0.4773  0.0942  -1.2677   0.0000   3.4891
  -4.600   0.0537   0.01118   0.00461  -0.0907  0.4631  0.1000  -1.1973   0.0000   1.9952
  -4.400   0.0789   0.01117   0.00458  -0.0913  0.4505  0.1068  -1.1276   0.0000   1.4434
  -4.200   0.1045   0.01115   0.00455  -0.0920  0.4391  0.1148  -1.0595   0.0000   1.1560
  -4.000   0.1302   0.01113   0.00453  -0.0927  0.4282  0.1253  -0.9945   0.0000   0.9808
  -3.800   0.1563   0.01112   0.00452  -0.0936  0.4166  0.1384  -0.9300   0.0000   0.8625
  -3.600   0.1826   0.01111   0.00451  -0.0944  0.4046  0.1525  -0.8663   0.0000   0.7778
  -3.400   0.2095   0.01108   0.00451  -0.0954  0.3939  0.1704  -0.8028   0.0000   0.7137
  -3.200   0.2385   0.01103   0.00452  -0.0969  0.3841  0.2008  -0.8262   0.0000   0.6625
  -3.000   0.2723   0.01091   0.00454  -0.0994  0.3737  0.2555  -0.8582   0.0000   0.6199
  -2.800   0.3113   0.01076   0.00461  -0.1032  0.3634  0.3350  -0.8940   0.0000   0.5847
  -2.600   0.3432   0.01075   0.00467  -0.1052  0.3540  0.3764  -0.9254   0.0000   0.5589
  -2.400   0.3742   0.01075   0.00475  -0.1071  0.3468  0.4087  -0.9564   0.0000   0.5375
  -2.200   0.4058   0.01078   0.00483  -0.1090  0.3395  0.4415  -0.9881   0.0000   0.5193
  -2.000   0.4365   0.01081   0.00492  -0.1107  0.3337  0.4686  -1.0203   0.0000   0.5037
  -1.800   0.4653   0.01088   0.00500  -0.1120  0.3267  0.4881  -1.0519   0.0000   0.4902
  -1.600   0.4940   0.01095   0.00509  -0.1133  0.3211  0.5053  -1.0849   0.0000   0.4783
  -1.400   0.5230   0.01103   0.00518  -0.1146  0.3155  0.5226  -1.1185   0.0000   0.4677
  -1.200   0.5527   0.01112   0.00529  -0.1161  0.3095  0.5416  -1.1528   0.0000   0.4582
  -1.000   0.5830   0.01120   0.00540  -0.1177  0.3049  0.5614  -1.1878   0.0000   0.4496
  -0.800   0.6123   0.01130   0.00552  -0.1191  0.3000  0.5778  -1.2222   0.0000   0.4418
  -0.600   0.6384   0.01141   0.00561  -0.1198  0.2955  0.5868  -1.2544   0.0000   0.4346
  -0.400   0.6646   0.01151   0.00571  -0.1205  0.2922  0.5941  -1.2869   0.0000   0.4279
  -0.200   0.6892   0.01160   0.00580  -0.1209  0.2891  0.6005  -1.3198   0.0000   0.4217
   0.000   0.7155   0.01171   0.00591  -0.1216  0.2851  0.6070  -1.3542   0.0000   0.4160
   0.200   0.7402   0.01184   0.00601  -0.1220  0.2807  0.6134  -1.3876   0.0000   0.4106
   0.400   0.7653   0.01195   0.00612  -0.1225  0.2774  0.6196  -1.4214   0.0000   0.4055
   0.600   0.7911   0.01206   0.00624  -0.1232  0.2744  0.6267  -1.4561   0.0000   0.4008
   0.800   0.8152   0.01218   0.00635  -0.1235  0.2712  0.6328  -1.4896   0.0000   0.3963
   1.000   0.8408   0.01232   0.00648  -0.1241  0.2675  0.6389  -1.5251   0.0000   0.3921
   1.200   0.8653   0.01246   0.00661  -0.1245  0.2638  0.6454  -1.5618   0.0000   0.3881
   1.400   0.8899   0.01258   0.00674  -0.1249  0.2610  0.6515  -1.5995   0.0000   0.3843
   1.600   0.9151   0.01272   0.00688  -0.1254  0.2577  0.6581  -1.6381   0.0000   0.3808
   1.800   0.9388   0.01287   0.00702  -0.1256  0.2540  0.6641  -1.6755   0.0000   0.3773
   2.000   0.9632   0.01304   0.00717  -0.1260  0.2501  0.6699  -1.7136   0.0000   0.3740
   2.200   0.9878   0.01318   0.00732  -0.1264  0.2478  0.6764  -1.7523   0.0000   0.3709
   2.400   1.0111   0.01331   0.00746  -0.1265  0.2454  0.6820  -1.7899   0.0000   0.3678
   2.600   1.0358   0.01347   0.00763  -0.1269  0.2426  0.6880  -1.8291   0.0000   0.3650
   2.800   1.0593   0.01364   0.00780  -0.1271  0.2395  0.6941  -1.8673   0.0000   0.3622
   3.000   1.0820   0.01383   0.00797  -0.1272  0.2360  0.6995  -1.9067   0.0000   0.3594
   3.200   1.1061   0.01398   0.00814  -0.1275  0.2336  0.7053  -1.9497   0.0000   0.3569
   3.400   1.1292   0.01415   0.00831  -0.1276  0.2308  0.7111  -1.9919   0.0000   0.3544
   3.600   1.1517   0.01433   0.00849  -0.1276  0.2276  0.7161  -2.0337   0.0000   0.3519
   3.800   1.1744   0.01454   0.00870  -0.1277  0.2240  0.7216  -2.0760   0.0000   0.3495
   4.000   1.1967   0.01473   0.00889  -0.1276  0.2212  0.7270  -2.1180   0.0000   0.3472
   4.200   1.2188   0.01491   0.00907  -0.1276  0.2192  0.7316  -2.1601   0.0000   0.3449
   4.400   1.2411   0.01509   0.00928  -0.1275  0.2169  0.7365  -2.2026   0.0000   0.3427
   4.600   1.2627   0.01530   0.00949  -0.1274  0.2140  0.7415  -2.2464   0.0000   0.3406
   4.800   1.2837   0.01553   0.00970  -0.1271  0.2107  0.7459  -2.2919   0.0000   0.3385
   5.000   1.3044   0.01575   0.00993  -0.1268  0.2075  0.7500  -2.3375   0.0000   0.3364
   5.200   1.3255   0.01595   0.01014  -0.1265  0.2050  0.7544  -2.3836   0.0000   0.3343
   5.400   1.3462   0.01617   0.01037  -0.1262  0.2022  0.7589  -2.4297   0.0000   0.3324
   5.600   1.3667   0.01641   0.01060  -0.1259  0.1994  0.7629  -2.4756   0.0000   0.3304
   5.800   1.3856   0.01667   0.01087  -0.1252  0.1966  0.7667  -2.5199   0.0000   0.3284
   6.000   1.4048   0.01691   0.01113  -0.1247  0.1943  0.7709  -2.5665   0.0000   0.3264
   6.200   1.4245   0.01715   0.01138  -0.1242  0.1920  0.7750  -2.6144   0.0000   0.3246
   6.400   1.4440   0.01742   0.01165  -0.1237  0.1890  0.7784  -2.6643   0.0000   0.3227
   6.600   1.4618   0.01771   0.01194  -0.1229  0.1858  0.7814  -2.7146   0.0000   0.3208
   6.800   1.4786   0.01802   0.01224  -0.1219  0.1825  0.7847  -2.7637   0.0000   0.3189
   7.000   1.4971   0.01827   0.01252  -0.1212  0.1803  0.7882  -2.8154   0.0000   0.3171
   7.200   1.5158   0.01855   0.01281  -0.1206  0.1776  0.7918  -2.8678   0.0000   0.3154
   7.400   1.5346   0.01887   0.01313  -0.1200  0.1746  0.7949  -2.9206   0.0000   0.3137
   7.600   1.5505   0.01919   0.01346  -0.1189  0.1718  0.7977  -2.9698   0.0000   0.3119
   7.800   1.5657   0.01951   0.01379  -0.1176  0.1693  0.8005  -3.0224   0.0000   0.3100
   8.000   1.5817   0.01983   0.01413  -0.1166  0.1667  0.8034  -3.0765   0.0000   0.3083
   8.200   1.5977   0.02020   0.01450  -0.1155  0.1635  0.8063  -3.1314   0.0000   0.3065
   8.400   1.6140   0.02062   0.01492  -0.1146  0.1601  0.8090  -3.1927   0.0000   0.3049
   8.600   1.6315   0.02104   0.01533  -0.1139  0.1571  0.8114  -3.2575   0.0000   0.3033
   8.800   1.6449   0.02137   0.01569  -0.1124  0.1546  0.8137  -3.3157   0.0000   0.3015
   9.000   1.6575   0.02177   0.01610  -0.1108  0.1513  0.8161  -3.3736   0.0000   0.2997
   9.200   1.6694   0.02225   0.01658  -0.1091  0.1478  0.8185  -3.4318   0.0000   0.2979
   9.400   1.6830   0.02271   0.01705  -0.1078  0.1451  0.8208  -3.4936   0.0000   0.2962
   9.600   1.6982   0.02315   0.01751  -0.1067  0.1426  0.8230  -3.5587   0.0000   0.2947
   9.800   1.7134   0.02367   0.01803  -0.1058  0.1394  0.8251  -3.6277   0.0000   0.2932
  10.000   1.7277   0.02430   0.01865  -0.1047  0.1359  0.8269  -3.6995   0.0000   0.2917
  10.200   1.7373   0.02479   0.01917  -0.1028  0.1335  0.8289  -3.7633   0.0000   0.2899
  10.400   1.7466   0.02528   0.01969  -0.1008  0.1310  0.8308  -3.8278   0.0000   0.2881
  10.600   1.7552   0.02590   0.02031  -0.0988  0.1276  0.8327  -3.8914   0.0000   0.2863
  10.800   1.7632   0.02663   0.02105  -0.0968  0.1240  0.8345  -3.9537   0.0000   0.2845
  11.000   1.7749   0.02724   0.02168  -0.0955  0.1214  0.8363  -4.0246   0.0000   0.2830
  11.200   1.7858   0.02798   0.02244  -0.0941  0.1182  0.8381  -4.0958   0.0000   0.2815
  11.400   1.7956   0.02887   0.02332  -0.0927  0.1148  0.8398  -4.1681   0.0000   0.2800
  11.600   1.8077   0.02970   0.02417  -0.0916  0.1121  0.8414  -4.2487   0.0000   0.2787
  11.800   1.8184   0.03057   0.02505  -0.0904  0.1092  0.8428  -4.3269   0.0000   0.2773
  12.000   1.8214   0.03145   0.02596  -0.0880  0.1065  0.8442  -4.3858   0.0000   0.2755
  12.200   1.8240   0.03245   0.02698  -0.0857  0.1038  0.8456  -4.4438   0.0000   0.2738
  12.400   1.8292   0.03334   0.02791  -0.0837  0.1017  0.8469  -4.5096   0.0000   0.2722
  12.600   1.8338   0.03439   0.02898  -0.0819  0.0989  0.8482  -4.5754   0.0000   0.2706
  12.800   1.8371   0.03566   0.03027  -0.0801  0.0958  0.8496  -4.6380   0.0000   0.2691
  13.000   1.8421   0.03690   0.03153  -0.0787  0.0933  0.8510  -4.7049   0.0000   0.2678
  13.200   1.8476   0.03819   0.03285  -0.0774  0.0907  0.8523  -4.7736   0.0000   0.2665
  13.400   1.8516   0.03970   0.03439  -0.0762  0.0880  0.8536  -4.8381   0.0000   0.2653
  13.600   1.8554   0.04135   0.03606  -0.0751  0.0854  0.8548  -4.9019   0.0000   0.2642
  13.800   1.8620   0.04287   0.03762  -0.0744  0.0832  0.8560  -4.9740   0.0000   0.2632
  14.000   1.8670   0.04464   0.03942  -0.0738  0.0807  0.8570  -5.0412   0.0000   0.2623
  14.200   1.8662   0.04658   0.04138  -0.0726  0.0784  0.8579  -5.0924   0.0000   0.2612
  14.400   1.8633   0.04835   0.04321  -0.0710  0.0767  0.8588  -5.1389   0.0000   0.2599
  14.600   1.8609   0.05015   0.04506  -0.0695  0.0750  0.8597  -5.1868   0.0000   0.2587
  14.800   1.8572   0.05219   0.04715  -0.0683  0.0731  0.8605  -5.2306   0.0000   0.2576
  15.000   1.8520   0.05458   0.04958  -0.0673  0.0711  0.8612  -5.2690   0.0000   0.2566
  15.200   1.8472   0.05705   0.05211  -0.0666  0.0694  0.8619  -5.3079   0.0000   0.2558
  15.400   1.8440   0.05943   0.05454  -0.0660  0.0679  0.8626  -5.3515   0.0000   0.2550
  15.600   1.8392   0.06206   0.05723  -0.0656  0.0662  0.8634  -5.3893   0.0000   0.2544
  15.800   1.8325   0.06498   0.06021  -0.0654  0.0646  0.8641  -5.4247   0.0000   0.2539
  16.000   1.8243   0.06819   0.06348  -0.0654  0.0631  0.8647  -5.4546   0.0000   0.2535
  16.200   1.8178   0.07129   0.06665  -0.0655  0.0620  0.8654  -5.4902   0.0000   0.2531
  16.400   1.8111   0.07453   0.06996  -0.0659  0.0607  0.8660  -5.5239   0.0000   0.2529
  16.600   1.8025   0.07808   0.07358  -0.0665  0.0593  0.8665  -5.5500   0.0000   0.2528
  16.800   1.7920   0.08195   0.07752  -0.0673  0.0579  0.8670  -5.5680   0.0000   0.2529
  17.000   1.7791   0.08619   0.08183  -0.0684  0.0567  0.8674  -5.5754   0.0000   0.2532
  17.200   1.7679   0.09028   0.08600  -0.0696  0.0556  0.8679  -5.5880   0.0000   0.2535
  17.400   1.7573   0.09436   0.09016  -0.0709  0.0545  0.8683  -5.6018   0.0000   0.2539
  17.600   1.7458   0.09864   0.09452  -0.0725  0.0534  0.8688  -5.6101   0.0000   0.2544
  17.800   1.7332   0.10312   0.09907  -0.0743  0.0523  0.8692  -5.6126   0.0000   0.2551
  18.000   1.7196   0.10778   0.10380  -0.0764  0.0512  0.8696  -5.6087   0.0000   0.2560
  18.200   1.7057   0.11255   0.10865  -0.0786  0.0502  0.8700  -5.6018   0.0000   0.2571
  18.400   1.6969   0.11669   0.11286  -0.0807  0.0493  0.8704  -5.6142   0.0000   0.2579
  18.600   1.6875   0.12097   0.11721  -0.0831  0.0484  0.8708  -5.6220   0.0000   0.2590
  18.800   1.6772   0.12540   0.12171  -0.0857  0.0473  0.8712  -5.6245   0.0000   0.2601
  19.000   1.6663   0.12996   0.12634  -0.0884  0.0463  0.8715  -5.6220   0.0000   0.2615
  19.200   1.6534   0.13433   0.13076  -0.0909  0.0453  0.8718  -5.6113   0.0000   0.2627
  19.400   1.6428   0.13812   0.13462  -0.0929  0.0444  0.8722  -5.6103   0.0000   0.2637
  19.600   1.6340   0.14158   0.13813  -0.0947  0.0436  0.8725  -5.6167   0.0000   0.2645
  19.800   1.6240   0.14526   0.14188  -0.0968  0.0427  0.8729  -5.6158   0.0000   0.2655
  20.000   1.6160   0.14863   0.14529  -0.0987  0.0417  0.8733  -5.6232   0.0000   0.2663
  20.200   1.6052   0.15249   0.14921  -0.1011  0.0408  0.8737  -5.6152   0.0000   0.2676
  20.400   1.5968   0.15598   0.15273  -0.1033  0.0398  0.8741  -5.6175   0.0000   0.2687
  20.600   1.5905   0.15916   0.15596  -0.1053  0.0392  0.8745  -5.6290   0.0000   0.2696
  20.800   1.5865   0.16196   0.15881  -0.1071  0.0384  0.8749  -5.6515   0.0000   0.2702
  21.000   1.5797   0.16533   0.16223  -0.1095  0.0376  0.8753  -5.6573   0.0000   0.2714
  21.200   1.5754   0.16826   0.16520  -0.1116  0.0368  0.8757  -5.6754   0.0000   0.2722
  21.400   1.5679   0.17179   0.16877  -0.1142  0.0360  0.8761  -5.6748   0.0000   0.2736
  21.600   1.5636   0.17478   0.17179  -0.1165  0.0352  0.8765  -5.6903   0.0000   0.2746
  21.800   1.5606   0.17754   0.17460  -0.1186  0.0345  0.8770  -5.7122   0.0000   0.2754
  22.000   1.5570   0.18042   0.17752  -0.1208  0.0338  0.8775  -5.7300   0.0000   0.2763
  22.200   1.5550   0.18309   0.18021  -0.1229  0.0330  0.8780  -5.7553   0.0000   0.2771
  22.400   1.5499   0.18638   0.18355  -0.1257  0.0322  0.8786  -5.7608   0.0000   0.2785
  22.600   1.5467   0.18941   0.18660  -0.1283  0.0314  0.8791  -5.7757   0.0000   0.2797
  22.800   1.5464   0.19197   0.18920  -0.1306  0.0307  0.8796  -5.8070   0.0000   0.2804
  23.000   1.5441   0.19499   0.19226  -0.1334  0.0301  0.8801  -5.8238   0.0000   0.2817
  23.200   1.5439   0.19765   0.19495  -0.1359  0.0294  0.8807  -5.8534   0.0000   0.2826
  23.400   1.5441   0.20033   0.19765  -0.1385  0.0287  0.8812  -5.8832   0.0000   0.2835
  23.600   1.5408   0.20370   0.20106  -0.1418  0.0280  0.8817  -5.8896   0.0000   0.2852
  23.800   1.5406   0.20655   0.20394  -0.1447  0.0274  0.8823  -5.9168   0.0000   0.2863
  24.000   1.5435   0.20896   0.20637  -0.1472  0.0268  0.8829  -5.9623   0.0000   0.2871
  24.200   1.5434   0.21201   0.20947  -0.1505  0.0263  0.8835  -5.9900   0.0000   0.2884
  24.400   1.5451   0.21483   0.21231  -0.1536  0.0256  0.8841  -6.0287   0.0000   0.2896
  24.600   1.5474   0.21759   0.21509  -0.1567  0.0250  0.8847  -6.0707   0.0000   0.2907
  24.800   1.5454   0.22066   0.21819  -0.1599  0.0244  0.8851  -6.0860   0.0000   0.2922
  25.000   1.5428   0.22317   0.22074  -0.1623  0.0240  0.8854  -6.1038   0.0000   0.2931


