xflr5 v6.47

 Calculated polar for: NACA24018_theta30_Ku4.5_Kl0.5_d0.24_delta7.31

 1 1 Reynolds number fixed          Mach number fixed         

 xtrf =   1.000 (top)        1.000 (bottom)
 Mach =   0.000     Re =     1.800 e 6     Ncrit =   5.000

  alpha     CL        CD       CDp       Cm    Top Xtr Bot Xtr   Cpmin    Chinge    XCp    
 ------- -------- --------- --------- -------- ------- ------- -------- --------- ---------
 -15.000  -0.6513   0.03295   0.02866  -0.1237  0.8558  0.0329  -5.2903   0.0000   0.0314
 -14.800  -0.6256   0.03284   0.02856  -0.1251  0.8558  0.0335  -5.1399   0.0000   0.0211
 -14.600  -0.5996   0.03276   0.02849  -0.1265  0.8558  0.0341  -4.9898   0.0000   0.0098
 -14.400  -0.5734   0.03272   0.02845  -0.1278  0.8557  0.0347  -4.8441   0.0000  -0.0027
 -14.200  -0.5471   0.03271   0.02844  -0.1291  0.8557  0.0354  -4.7016   0.0000  -0.0163
 -14.000  -0.5211   0.03272   0.02846  -0.1304  0.8557  0.0360  -4.5612   0.0000  -0.0311
 -13.800  -0.4952   0.03277   0.02850  -0.1315  0.8557  0.0364  -4.4230   0.0000  -0.0470
 -13.600  -0.4680   0.03281   0.02856  -0.1329  0.8557  0.0373  -4.2826   0.0000  -0.0665
 -13.400  -0.4408   0.03288   0.02865  -0.1343  0.8556  0.0380  -4.1437   0.0000  -0.0881
 -13.200  -0.4114   0.03289   0.02867  -0.1360  0.8556  0.0388  -3.9997   0.0000  -0.1152
 -13.000  -0.3769   0.03272   0.02850  -0.1384  0.8553  0.0397  -3.8427   0.0000  -0.1537
 -12.800  -0.3399   0.03246   0.02823  -0.1411  0.8551  0.0405  -3.6809   0.0000  -0.2043
 -12.600  -0.2986   0.03211   0.02790  -0.1446  0.8549  0.0419  -3.5102   0.0000  -0.2772
 -12.400  -0.2909   0.03247   0.02828  -0.1428  0.8500  0.0425  -3.4371   0.0000  -0.2837
 -12.200  -0.2569   0.03227   0.02809  -0.1450  0.8490  0.0435  -3.2960   0.0000  -0.3614
 -12.000  -0.2221   0.03205   0.02787  -0.1473  0.8482  0.0445  -3.1550   0.0000  -0.4657
 -11.800  -0.1830   0.03167   0.02750  -0.1504  0.8475  0.0458  -3.0055   0.0000  -0.6331
 -11.600  -0.1366   0.03096   0.02680  -0.1545  0.8466  0.0475  -2.8409   0.0000  -0.9600
 -11.400  -0.0929   0.03029   0.02613  -0.1582  0.8458  0.0492  -2.6922   0.0000  -1.5644
  -9.800   0.1140   0.03231   0.02831  -0.1654  0.8314  0.0628  -1.8928   0.0000   1.7699
  -9.600   0.1330   0.03293   0.02895  -0.1652  0.8264  0.0646  -1.8158   0.0000   1.5485
  -9.400   0.1175   0.03533   0.03139  -0.1597  0.7936  0.0649  -1.8053   0.0000   1.6716
  -9.200   0.1832   0.03369   0.02974  -0.1665  0.7853  0.0692  -1.6428   0.0000   1.1971
  -9.000   0.2783   0.03066   0.02661  -0.1783  0.7721  0.0765  -1.4428   0.0000   0.9142
  -8.800   0.3038   0.03054   0.02604  -0.1789  0.6846  0.0796  -1.3646   0.0000   0.8595
  -8.600   0.3198   0.03128   0.02663  -0.1781  0.6465  0.0826  -1.3027   0.0000   0.8256
  -8.400   0.3398   0.03180   0.02703  -0.1779  0.6163  0.0857  -1.2351   0.0000   0.7903
  -8.200   0.3639   0.03225   0.02739  -0.1785  0.5872  0.0903  -1.1620   0.0000   0.7553
  -8.000   0.3876   0.03263   0.02765  -0.1789  0.5608  0.0945  -1.0905   0.0000   0.7247
  -7.800   0.4141   0.03297   0.02792  -0.1798  0.5362  0.0999  -1.0197   0.0000   0.6959
  -7.600   0.4405   0.03327   0.02815  -0.1807  0.5141  0.1052  -0.9534   0.0000   0.6705
  -7.400   0.4681   0.03356   0.02837  -0.1818  0.4933  0.1121  -0.8865   0.0000   0.6474
  -7.200   0.4969   0.03387   0.02862  -0.1831  0.4743  0.1205  -0.8380   0.0000   0.6264
  -7.000   0.5257   0.03420   0.02892  -0.1844  0.4586  0.1299  -0.8661   0.0000   0.6076
  -6.800   0.5546   0.03456   0.02923  -0.1857  0.4420  0.1408  -0.8953   0.0000   0.5908
  -6.400   0.6168   0.03540   0.03002  -0.1891  0.4099  0.1746  -0.9582   0.0000   0.5610
  -6.200   0.6516   0.03593   0.03057  -0.1914  0.3970  0.1989  -0.9926   0.0000   0.5475
  -6.000   0.6881   0.03652   0.03118  -0.1941  0.3848  0.2293  -1.0284   0.0000   0.5352
  -5.800   0.7389   0.03756   0.03231  -0.1994  0.3708  0.2951  -1.0749   0.0000   0.5223
  -5.600   0.7862   0.03855   0.03338  -0.2041  0.3586  0.3520  -1.1196   0.0000   0.5113
  -5.400   0.8217   0.03920   0.03403  -0.2065  0.3479  0.3803  -1.1581   0.0000   0.5026
  -5.200   0.8532   0.03974   0.03457  -0.2081  0.3395  0.3997  -1.1946   0.0000   0.4948
  -5.000   0.8842   0.04026   0.03508  -0.2097  0.3309  0.4173  -1.2310   0.0000   0.4875
  -4.800   0.9129   0.04073   0.03554  -0.2108  0.3248  0.4301  -1.2659   0.0000   0.4809
  -4.600   0.9390   0.04111   0.03589  -0.2115  0.3187  0.4398  -1.2989   0.0000   0.4748
  -4.400   0.9676   0.04158   0.03635  -0.2126  0.3133  0.4522  -1.3341   0.0000   0.4689
  -4.200   0.9979   0.04212   0.03691  -0.2140  0.3092  0.4687  -1.3710   0.0000   0.4632
  -4.000   1.0284   0.04269   0.03747  -0.2154  0.3039  0.4860  -1.4083   0.0000   0.4579
  -3.800   1.0555   0.04313   0.03789  -0.2162  0.2977  0.4976  -1.4440   0.0000   0.4529
  -3.600   1.0797   0.04349   0.03824  -0.2165  0.2941  0.5029  -1.4780   0.0000   0.4482
  -3.400   1.1044   0.04386   0.03860  -0.2168  0.2901  0.5078  -1.5125   0.0000   0.4437
  -3.200   1.1277   0.04419   0.03891  -0.2169  0.2861  0.5123  -1.5460   0.0000   0.4395
  -3.000   1.1497   0.04447   0.03916  -0.2168  0.2812  0.5160  -1.5785   0.0000   0.4354
  -2.800   1.1711   0.04474   0.03941  -0.2166  0.2781  0.5190  -1.6106   0.0000   0.4314
  -2.600   1.1954   0.04513   0.03979  -0.2169  0.2745  0.5237  -1.6474   0.0000   0.4276
  -2.400   1.2186   0.04548   0.04013  -0.2170  0.2704  0.5282  -1.6846   0.0000   0.4239
  -2.200   1.2405   0.04578   0.04040  -0.2169  0.2658  0.5321  -1.7208   0.0000   0.4203
  -2.000   1.2618   0.04607   0.04067  -0.2166  0.2625  0.5354  -1.7565   0.0000   0.4169
  -1.800   1.2826   0.04634   0.04093  -0.2163  0.2603  0.5381  -1.7920   0.0000   0.4135
  -1.600   1.3055   0.04669   0.04129  -0.2163  0.2574  0.5419  -1.8296   0.0000   0.4103
  -1.400   1.3278   0.04704   0.04162  -0.2162  0.2541  0.5457  -1.8670   0.0000   0.4071
  -1.200   1.3492   0.04735   0.04192  -0.2160  0.2500  0.5495  -1.9046   0.0000   0.4041
  -1.000   1.3703   0.04766   0.04221  -0.2157  0.2468  0.5534  -1.9426   0.0000   0.4011
  -0.800   1.3909   0.04795   0.04250  -0.2154  0.2444  0.5566  -1.9804   0.0000   0.3982
  -0.600   1.4126   0.04830   0.04284  -0.2152  0.2417  0.5602  -2.0196   0.0000   0.3954
  -0.400   1.4345   0.04866   0.04320  -0.2150  0.2383  0.5640  -2.0597   0.0000   0.3927
  -0.200   1.4554   0.04901   0.04352  -0.2147  0.2344  0.5677  -2.1001   0.0000   0.3900
   0.000   1.4761   0.04934   0.04385  -0.2144  0.2314  0.5715  -2.1405   0.0000   0.3874
   0.200   1.4964   0.04966   0.04416  -0.2140  0.2293  0.5748  -2.1807   0.0000   0.3848
   0.400   1.5166   0.04998   0.04448  -0.2135  0.2263  0.5777  -2.2213   0.0000   0.3823
   0.600   1.5375   0.05036   0.04485  -0.2132  0.2224  0.5813  -2.2661   0.0000   0.3799
   0.800   1.5574   0.05073   0.04519  -0.2127  0.2178  0.5847  -2.3099   0.0000   0.3775
   1.000   1.5774   0.05107   0.04553  -0.2122  0.2155  0.5879  -2.3541   0.0000   0.3752
   1.200   1.5970   0.05140   0.04587  -0.2117  0.2133  0.5912  -2.3980   0.0000   0.3729
   1.400   1.6162   0.05173   0.04620  -0.2111  0.2108  0.5942  -2.4416   0.0000   0.3706
   1.600   1.6352   0.05208   0.04653  -0.2105  0.2080  0.5970  -2.4853   0.0000   0.3684
   1.800   1.6547   0.05247   0.04692  -0.2099  0.2049  0.6006  -2.5299   0.0000   0.3663
   2.000   1.6739   0.05284   0.04729  -0.2093  0.2024  0.6038  -2.5742   0.0000   0.3641
   2.200   1.6930   0.05320   0.04766  -0.2087  0.2005  0.6070  -2.6186   0.0000   0.3620
   2.400   1.7116   0.05357   0.04803  -0.2080  0.1976  0.6103  -2.6627   0.0000   0.3600
   2.600   1.7295   0.05396   0.04840  -0.2072  0.1939  0.6131  -2.7070   0.0000   0.3579
   2.800   1.7469   0.05436   0.04877  -0.2064  0.1897  0.6152  -2.7549   0.0000   0.3559
   3.000   1.7652   0.05476   0.04919  -0.2056  0.1875  0.6183  -2.8048   0.0000   0.3539
   3.200   1.7829   0.05519   0.04963  -0.2048  0.1850  0.6213  -2.8543   0.0000   0.3520
   3.400   1.8000   0.05566   0.05010  -0.2039  0.1817  0.6245  -2.9061   0.0000   0.3500
   3.600   1.8162   0.05616   0.05058  -0.2029  0.1777  0.6275  -2.9579   0.0000   0.3481
   3.800   1.8328   0.05664   0.05106  -0.2019  0.1749  0.6302  -3.0105   0.0000   0.3462
   4.000   1.8495   0.05710   0.05153  -0.2009  0.1725  0.6324  -3.0634   0.0000   0.3444
   4.200   1.8656   0.05759   0.05201  -0.1999  0.1694  0.6343  -3.1160   0.0000   0.3425
   4.400   1.8810   0.05809   0.05251  -0.1987  0.1659  0.6371  -3.1713   0.0000   0.3407
   4.600   1.8966   0.05858   0.05300  -0.1976  0.1628  0.6399  -3.2275   0.0000   0.3389
   4.800   1.9125   0.05904   0.05348  -0.1965  0.1606  0.6427  -3.2846   0.0000   0.3371
   5.000   1.9278   0.05954   0.05398  -0.1954  0.1575  0.6452  -3.3410   0.0000   0.3353
   5.200   1.9421   0.06010   0.05453  -0.1941  0.1535  0.6474  -3.3975   0.0000   0.3336
   5.400   1.9568   0.06065   0.05507  -0.1929  0.1502  0.6496  -3.4574   0.0000   0.3318
   5.600   1.9718   0.06120   0.05563  -0.1917  0.1472  0.6517  -3.5221   0.0000   0.3301
   5.800   1.9858   0.06185   0.05626  -0.1904  0.1435  0.6535  -3.5897   0.0000   0.3284
   6.000   1.9975   0.06256   0.05696  -0.1888  0.1396  0.6558  -3.6549   0.0000   0.3266
   6.200   2.0099   0.06322   0.05764  -0.1873  0.1366  0.6581  -3.7236   0.0000   0.3249
   6.400   2.0216   0.06393   0.05835  -0.1857  0.1330  0.6602  -3.7913   0.0000   0.3232
   6.600   2.0328   0.06468   0.05909  -0.1841  0.1293  0.6622  -3.8582   0.0000   0.3215
   6.800   2.0457   0.06532   0.05975  -0.1827  0.1270  0.6643  -3.9291   0.0000   0.3198
   7.000   2.0581   0.06603   0.06047  -0.1813  0.1240  0.6666  -3.9994   0.0000   0.3182
   7.200   2.0692   0.06685   0.06128  -0.1797  0.1204  0.6687  -4.0745   0.0000   0.3166
   7.400   2.0804   0.06770   0.06214  -0.1781  0.1175  0.6705  -4.1508   0.0000   0.3149
   7.600   2.0907   0.06866   0.06310  -0.1765  0.1142  0.6720  -4.2255   0.0000   0.3133
   7.800   2.0986   0.06972   0.06415  -0.1746  0.1099  0.6734  -4.2950   0.0000   0.3116
   8.000   2.1075   0.07057   0.06502  -0.1728  0.1067  0.6754  -4.3680   0.0000   0.3100
   8.200   2.1156   0.07150   0.06595  -0.1709  0.1030  0.6773  -4.4460   0.0000   0.3084
   8.400   2.1226   0.07256   0.06701  -0.1689  0.0999  0.6792  -4.5215   0.0000   0.3068
   8.600   2.1302   0.07360   0.06808  -0.1671  0.0978  0.6810  -4.5992   0.0000   0.3052
   8.800   2.1373   0.07470   0.06920  -0.1652  0.0948  0.6827  -4.6759   0.0000   0.3036
   9.000   2.1433   0.07593   0.07042  -0.1633  0.0915  0.6842  -4.7502   0.0000   0.3020
   9.200   2.1506   0.07708   0.07159  -0.1616  0.0887  0.6858  -4.8284   0.0000   0.3005
   9.400   2.1544   0.07858   0.07310  -0.1595  0.0850  0.6873  -4.8978   0.0000   0.2989
   9.600   2.1601   0.07994   0.07447  -0.1578  0.0819  0.6889  -4.9724   0.0000   0.2974
   9.800   2.1650   0.08143   0.07598  -0.1560  0.0789  0.6903  -5.0452   0.0000   0.2959
  10.000   2.1682   0.08311   0.07767  -0.1541  0.0760  0.6914  -5.1138   0.0000   0.2945
  10.200   2.1727   0.08442   0.07901  -0.1524  0.0739  0.6928  -5.1853   0.0000   0.2930
  10.400   2.1743   0.08600   0.08062  -0.1504  0.0717  0.6942  -5.2487   0.0000   0.2915
  10.600   2.1750   0.08768   0.08233  -0.1485  0.0695  0.6954  -5.3102   0.0000   0.2901
  10.800   2.1777   0.08921   0.08389  -0.1468  0.0678  0.6967  -5.3841   0.0000   0.2888
  11.000   2.1788   0.09092   0.08564  -0.1451  0.0659  0.6979  -5.4533   0.0000   0.2874
  11.200   2.1785   0.09282   0.08757  -0.1435  0.0638  0.6992  -5.5180   0.0000   0.2861
  11.400   2.1794   0.09463   0.08942  -0.1421  0.0622  0.7006  -5.5864   0.0000   0.2849
  11.600   2.1800   0.09652   0.09135  -0.1407  0.0605  0.7021  -5.6540   0.0000   0.2837
  11.800   2.1791   0.09861   0.09348  -0.1395  0.0586  0.7035  -5.7167   0.0000   0.2826
  12.000   2.1777   0.10080   0.09571  -0.1384  0.0568  0.7048  -5.7773   0.0000   0.2815
  12.200   2.1779   0.10288   0.09783  -0.1375  0.0551  0.7060  -5.8430   0.0000   0.2805
  12.400   2.1755   0.10528   0.10026  -0.1366  0.0531  0.7071  -5.8999   0.0000   0.2796
  12.600   2.1724   0.10779   0.10281  -0.1360  0.0513  0.7081  -5.9537   0.0000   0.2788
  12.800   2.1718   0.11004   0.10511  -0.1355  0.0498  0.7090  -6.0157   0.0000   0.2780
  13.000   2.1694   0.11253   0.10764  -0.1352  0.0482  0.7099  -6.0710   0.0000   0.2772
  13.200   2.1647   0.11519   0.11034  -0.1349  0.0469  0.7107  -6.1173   0.0000   0.2766
  13.400   2.1608   0.11751   0.11273  -0.1346  0.0458  0.7117  -6.1655   0.0000   0.2759
  13.600   2.1568   0.11984   0.11512  -0.1344  0.0447  0.7128  -6.2133   0.0000   0.2753
  13.800   2.1516   0.12235   0.11768  -0.1344  0.0434  0.7139  -6.2556   0.0000   0.2748
  14.000   2.1448   0.12511   0.12050  -0.1346  0.0422  0.7148  -6.2909   0.0000   0.2744
  14.200   2.1393   0.12774   0.12318  -0.1350  0.0412  0.7158  -6.3302   0.0000   0.2741
  14.400   2.1336   0.13040   0.12591  -0.1355  0.0402  0.7168  -6.3683   0.0000   0.2738
  14.600   2.1272   0.13319   0.12876  -0.1362  0.0392  0.7177  -6.4024   0.0000   0.2736
  14.800   2.1198   0.13616   0.13179  -0.1372  0.0383  0.7186  -6.4314   0.0000   0.2736
  15.000   2.1131   0.13906   0.13474  -0.1382  0.0374  0.7195  -6.4623   0.0000   0.2736
  15.200   2.1078   0.14180   0.13755  -0.1393  0.0367  0.7204  -6.4981   0.0000   0.2735
  15.400   2.1011   0.14477   0.14059  -0.1407  0.0360  0.7214  -6.5272   0.0000   0.2737
  15.600   2.0940   0.14787   0.14375  -0.1423  0.0353  0.7224  -6.5527   0.0000   0.2739
  15.800   2.0861   0.15110   0.14704  -0.1441  0.0345  0.7234  -6.5770   0.0000   0.2743
  16.000   2.0782   0.15436   0.15036  -0.1460  0.0338  0.7244  -6.6013   0.0000   0.2747
  16.200   2.0728   0.15729   0.15335  -0.1478  0.0333  0.7255  -6.6372   0.0000   0.2750
  16.400   2.0660   0.16046   0.15659  -0.1499  0.0327  0.7264  -6.6651   0.0000   0.2754
  16.600   2.0588   0.16370   0.15989  -0.1521  0.0320  0.7273  -6.6899   0.0000   0.2760
  16.800   2.0520   0.16687   0.16312  -0.1544  0.0312  0.7280  -6.7155   0.0000   0.2765
  17.000   2.0436   0.17025   0.16656  -0.1569  0.0306  0.7286  -6.7321   0.0000   0.2772
  17.200   2.0333   0.17360   0.16998  -0.1594  0.0300  0.7293  -6.7380   0.0000   0.2780
  17.400   2.0268   0.17635   0.17278  -0.1614  0.0294  0.7301  -6.7633   0.0000   0.2785
  17.600   2.0188   0.17933   0.17583  -0.1636  0.0289  0.7308  -6.7797   0.0000   0.2791
  17.800   2.0104   0.18240   0.17896  -0.1661  0.0283  0.7315  -6.7924   0.0000   0.2798
  18.000   2.0032   0.18527   0.18188  -0.1684  0.0277  0.7321  -6.8105   0.0000   0.2805
  18.200   1.9937   0.18852   0.18519  -0.1711  0.0271  0.7328  -6.8147   0.0000   0.2814
  18.400   1.9876   0.19122   0.18793  -0.1734  0.0266  0.7335  -6.8369   0.0000   0.2820
  18.600   1.9804   0.19412   0.19089  -0.1759  0.0261  0.7343  -6.8514   0.0000   0.2827
  18.800   1.9757   0.19659   0.19341  -0.1780  0.0256  0.7351  -6.8803   0.0000   0.2832
  19.000   1.9693   0.19939   0.19626  -0.1805  0.0251  0.7360  -6.8972   0.0000   0.2839
  19.200   1.9632   0.20214   0.19906  -0.1831  0.0245  0.7369  -6.9155   0.0000   0.2846
  19.400   1.9585   0.20471   0.20167  -0.1855  0.0240  0.7378  -6.9406   0.0000   0.2853
  19.600   1.9511   0.20778   0.20479  -0.1886  0.0235  0.7387  -6.9472   0.0000   0.2863
  19.800   1.9492   0.20996   0.20701  -0.1906  0.0231  0.7398  -6.9879   0.0000   0.2866
  20.000   1.9445   0.21263   0.20973  -0.1933  0.0227  0.7407  -7.0096   0.0000   0.2873
  20.200   1.9409   0.21512   0.21225  -0.1958  0.0222  0.7416  -7.0375   0.0000   0.2880
  20.400   1.9383   0.21743   0.21460  -0.1982  0.0217  0.7425  -7.0715   0.0000   0.2884
  20.600   1.9323   0.22035   0.21757  -0.2013  0.0212  0.7433  -7.0806   0.0000   0.2895
  20.800   1.9289   0.22280   0.22005  -0.2039  0.0208  0.7441  -7.1074   0.0000   0.2901
  21.000   1.9276   0.22489   0.22217  -0.2061  0.0204  0.7449  -7.1477   0.0000   0.2905
  21.200   1.9231   0.22753   0.22486  -0.2090  0.0200  0.7456  -7.1645   0.0000   0.2913
  21.400   1.9212   0.22972   0.22708  -0.2114  0.0195  0.7462  -7.1993   0.0000   0.2918
  21.600   1.9182   0.23174   0.22914  -0.2136  0.0191  0.7471  -7.2292   0.0000   0.2922
  21.800   1.9118   0.23439   0.23183  -0.2166  0.0187  0.7478  -7.2317   0.0000   0.2932
  22.000   1.9078   0.23659   0.23405  -0.2190  0.0182  0.7486  -7.2524   0.0000   0.2938
  22.200   1.9057   0.23840   0.23590  -0.2210  0.0179  0.7494  -7.2869   0.0000   0.2941
  22.400   1.9008   0.24074   0.23829  -0.2237  0.0176  0.7500  -7.2984   0.0000   0.2949
  22.600   1.8981   0.24271   0.24030  -0.2259  0.0172  0.7507  -7.3262   0.0000   0.2953
  22.800   1.8961   0.24452   0.24214  -0.2280  0.0168  0.7514  -7.3618   0.0000   0.2956
  23.000   1.8918   0.24679   0.24444  -0.2307  0.0165  0.7520  -7.3794   0.0000   0.2964
  23.200   1.8876   0.24904   0.24673  -0.2334  0.0162  0.7526  -7.3968   0.0000   0.2971
  23.400   1.8852   0.25095   0.24867  -0.2358  0.0158  0.7533  -7.4285   0.0000   0.2976
  23.600   1.8833   0.25280   0.25055  -0.2380  0.0156  0.7540  -7.4634   0.0000   0.2979
  23.800   1.8794   0.25504   0.25283  -0.2408  0.0153  0.7547  -7.4799   0.0000   0.2987
  24.000   1.8782   0.25676   0.25458  -0.2430  0.0150  0.7555  -7.5197   0.0000   0.2990
  24.200   1.8769   0.25849   0.25634  -0.2452  0.0147  0.7563  -7.5582   0.0000   0.2993
  24.400   1.8727   0.26080   0.25869  -0.2482  0.0144  0.7571  -7.5689   0.0000   0.3002
  24.600   1.8701   0.26281   0.26072  -0.2508  0.0141  0.7580  -7.5931   0.0000   0.3007
  24.800   1.8682   0.26469   0.26263  -0.2533  0.0138  0.7590  -7.6228   0.0000   0.3012
  25.000   1.8651   0.26681   0.26478  -0.2562  0.0135  0.7599  -7.6402   0.0000   0.3019


