xflr5 v6.47

 Calculated polar for: NACA24018_theta30_Ku4.5_Kl0.5_d0.28_delta9.02

 1 1 Reynolds number fixed          Mach number fixed         

 xtrf =   1.000 (top)        1.000 (bottom)
 Mach =   0.000     Re =     2.200 e 6     Ncrit =   5.000

  alpha     CL        CD       CDp       Cm    Top Xtr Bot Xtr   Cpmin    Chinge    XCp    
 ------- -------- --------- --------- -------- ------- ------- -------- --------- ---------
 -15.000  -0.3940   0.03709   0.03323  -0.1505  0.8239  0.0367  -4.3857   0.0000  -0.1741
 -14.800  -0.3669   0.03723   0.03337  -0.1519  0.8239  0.0371  -4.2493   0.0000  -0.2078
 -14.600  -0.3392   0.03738   0.03353  -0.1534  0.8239  0.0378  -4.1129   0.0000  -0.2482
 -14.400  -0.3111   0.03756   0.03372  -0.1549  0.8238  0.0386  -3.9767   0.0000  -0.2967
 -14.200  -0.2833   0.03776   0.03394  -0.1564  0.8238  0.0394  -3.8426   0.0000  -0.3541
 -14.000  -0.2557   0.03798   0.03417  -0.1578  0.8238  0.0402  -3.7108   0.0000  -0.4229
 -13.800  -0.2283   0.03822   0.03441  -0.1591  0.8237  0.0409  -3.5812   0.0000  -0.5075
 -13.600  -0.2011   0.03847   0.03467  -0.1603  0.8237  0.0415  -3.4535   0.0000  -0.6143
 -13.400  -0.1709   0.03869   0.03491  -0.1621  0.8236  0.0428  -3.3196   0.0000  -0.7753
 -13.200  -0.1372   0.03871   0.03495  -0.1644  0.8235  0.0442  -3.1780   0.0000  -1.0402
 -13.000  -0.1006   0.03850   0.03474  -0.1669  0.8234  0.0454  -3.0312   0.0000  -1.5299
 -10.000   0.3345   0.04200   0.03851  -0.1875  0.7990  0.0729  -1.4433   0.0000   0.8313
  -9.800   0.3221   0.04463   0.04116  -0.1827  0.7639  0.0735  -1.4277   0.0000   0.8380
  -9.400   0.4536   0.04085   0.03669  -0.1960  0.6412  0.0854  -1.1391   0.0000   0.6953
  -9.000   0.4884   0.04264   0.03820  -0.1950  0.5697  0.0926  -1.0206   0.0000   0.6602
  -8.800   0.5107   0.04324   0.03870  -0.1952  0.5426  0.0966  -0.9584   0.0000   0.6421
  -8.600   0.5354   0.04381   0.03919  -0.1959  0.5176  0.1019  -0.9489   0.0000   0.6245
  -8.400   0.5601   0.04433   0.03962  -0.1965  0.4950  0.1074  -0.9510   0.0000   0.6085
  -8.200   0.5870   0.04487   0.04011  -0.1974  0.4758  0.1145  -0.9554   0.0000   0.5932
  -8.000   0.6136   0.04540   0.04058  -0.1983  0.4566  0.1218  -0.9597   0.0000   0.5792
  -7.800   0.6404   0.04593   0.04105  -0.1993  0.4381  0.1304  -0.9644   0.0000   0.5664
  -7.600   0.6684   0.04649   0.04156  -0.2004  0.4222  0.1406  -0.9702   0.0000   0.5543
  -7.400   0.6980   0.04710   0.04214  -0.2018  0.4080  0.1538  -0.9827   0.0000   0.5429
  -7.200   0.7296   0.04779   0.04283  -0.2035  0.3956  0.1708  -1.0154   0.0000   0.5321
  -7.000   0.7623   0.04853   0.04356  -0.2054  0.3839  0.1907  -1.0489   0.0000   0.5220
  -6.800   0.7953   0.04930   0.04433  -0.2074  0.3708  0.2153  -1.0831   0.0000   0.5128
  -6.600   0.8407   0.05060   0.04568  -0.2115  0.3577  0.2656  -1.1268   0.0000   0.5030
  -6.400   0.8846   0.05187   0.04701  -0.2153  0.3473  0.3119  -1.1715   0.0000   0.4943
  -6.000   0.9603   0.05399   0.04915  -0.2208  0.3285  0.3793  -1.2533   0.0000   0.4798
  -5.800   0.9875   0.05459   0.04972  -0.2216  0.3206  0.3926  -1.2874   0.0000   0.4740
  -5.600   1.0165   0.05528   0.05042  -0.2228  0.3153  0.4079  -1.3233   0.0000   0.4683
  -5.400   1.0443   0.05593   0.05107  -0.2237  0.3105  0.4209  -1.3584   0.0000   0.4629
  -5.200   1.0683   0.05641   0.05151  -0.2240  0.3045  0.4293  -1.3905   0.0000   0.4580
  -5.000   1.0948   0.05701   0.05210  -0.2247  0.2989  0.4387  -1.4263   0.0000   0.4532
  -4.800   1.1198   0.05755   0.05263  -0.2251  0.2952  0.4496  -1.4612   0.0000   0.4487
  -4.600   1.1504   0.05838   0.05346  -0.2265  0.2907  0.4663  -1.5014   0.0000   0.4442
  -4.400   1.1774   0.05903   0.05410  -0.2272  0.2857  0.4772  -1.5386   0.0000   0.4399
  -4.200   1.1995   0.05945   0.05450  -0.2272  0.2819  0.4823  -1.5715   0.0000   0.4360
  -4.000   1.2201   0.05979   0.05484  -0.2268  0.2789  0.4854  -1.6031   0.0000   0.4322
  -3.800   1.2411   0.06017   0.05519  -0.2266  0.2749  0.4886  -1.6355   0.0000   0.4285
  -3.600   1.2638   0.06063   0.05563  -0.2266  0.2702  0.4929  -1.6702   0.0000   0.4250
  -3.400   1.2855   0.06105   0.05603  -0.2265  0.2659  0.4968  -1.7050   0.0000   0.4215
  -3.200   1.3065   0.06143   0.05640  -0.2262  0.2634  0.5006  -1.7400   0.0000   0.4181
  -3.000   1.3266   0.06177   0.05673  -0.2258  0.2603  0.5036  -1.7752   0.0000   0.4149
  -2.800   1.3463   0.06210   0.05704  -0.2253  0.2571  0.5059  -1.8100   0.0000   0.4117
  -2.600   1.3682   0.06255   0.05747  -0.2252  0.2530  0.5096  -1.8473   0.0000   0.4087
  -2.400   1.3898   0.06299   0.05790  -0.2250  0.2495  0.5133  -1.8856   0.0000   0.4057
  -2.200   1.4107   0.06340   0.05831  -0.2247  0.2470  0.5172  -1.9241   0.0000   0.4028
  -2.000   1.4308   0.06377   0.05867  -0.2243  0.2441  0.5206  -1.9617   0.0000   0.3999
  -1.800   1.4501   0.06411   0.05899  -0.2238  0.2411  0.5232  -1.9987   0.0000   0.3972
  -1.600   1.4698   0.06448   0.05933  -0.2233  0.2377  0.5259  -2.0363   0.0000   0.3944
  -1.400   1.4905   0.06491   0.05975  -0.2230  0.2343  0.5294  -2.0753   0.0000   0.3918
  -1.200   1.5107   0.06531   0.06016  -0.2226  0.2322  0.5328  -2.1138   0.0000   0.3892
  -1.000   1.5303   0.06568   0.06053  -0.2221  0.2290  0.5361  -2.1519   0.0000   0.3867
  -0.800   1.5493   0.06604   0.06087  -0.2215  0.2251  0.5394  -2.1900   0.0000   0.3842
  -0.600   1.5676   0.06639   0.06118  -0.2208  0.2209  0.5420  -2.2304   0.0000   0.3818
  -0.400   1.5869   0.06676   0.06155  -0.2202  0.2184  0.5449  -2.2722   0.0000   0.3794
  -0.200   1.6069   0.06719   0.06198  -0.2198  0.2166  0.5483  -2.3150   0.0000   0.3771
   0.000   1.6261   0.06758   0.06238  -0.2192  0.2141  0.5514  -2.3573   0.0000   0.3749
   0.200   1.6447   0.06796   0.06275  -0.2185  0.2110  0.5544  -2.3989   0.0000   0.3726
   0.400   1.6627   0.06833   0.06309  -0.2178  0.2071  0.5572  -2.4400   0.0000   0.3704
   0.600   1.6807   0.06869   0.06344  -0.2170  0.2040  0.5599  -2.4812   0.0000   0.3682
   0.800   1.6988   0.06905   0.06380  -0.2163  0.2017  0.5623  -2.5248   0.0000   0.3661
   1.000   1.7180   0.06950   0.06425  -0.2157  0.1989  0.5659  -2.5718   0.0000   0.3640
   1.200   1.7364   0.06993   0.06467  -0.2151  0.1961  0.5691  -2.6180   0.0000   0.3620
   1.400   1.7540   0.07034   0.06506  -0.2143  0.1926  0.5719  -2.6633   0.0000   0.3600
   1.600   1.7715   0.07072   0.06544  -0.2134  0.1899  0.5747  -2.7086   0.0000   0.3580
   1.800   1.7888   0.07110   0.06583  -0.2126  0.1878  0.5775  -2.7547   0.0000   0.3560
   2.000   1.8057   0.07148   0.06620  -0.2117  0.1850  0.5798  -2.8017   0.0000   0.3540
   2.200   1.8224   0.07191   0.06661  -0.2107  0.1813  0.5825  -2.8487   0.0000   0.3521
   2.400   1.8391   0.07237   0.06706  -0.2098  0.1771  0.5854  -2.8966   0.0000   0.3502
   2.600   1.8560   0.07278   0.06748  -0.2089  0.1752  0.5882  -2.9483   0.0000   0.3484
   2.800   1.8722   0.07323   0.06794  -0.2079  0.1726  0.5909  -2.9992   0.0000   0.3465
   3.000   1.8874   0.07374   0.06843  -0.2068  0.1692  0.5937  -3.0490   0.0000   0.3447
   3.200   1.9019   0.07427   0.06894  -0.2056  0.1650  0.5962  -3.0978   0.0000   0.3428
   3.400   1.9170   0.07477   0.06945  -0.2045  0.1625  0.5982  -3.1509   0.0000   0.3410
   3.600   1.9319   0.07526   0.06994  -0.2033  0.1600  0.6001  -3.2049   0.0000   0.3393
   3.800   1.9466   0.07578   0.07046  -0.2021  0.1566  0.6028  -3.2607   0.0000   0.3375
   4.000   1.9607   0.07634   0.07100  -0.2009  0.1523  0.6055  -3.3160   0.0000   0.3357
   4.200   1.9756   0.07684   0.07150  -0.1997  0.1498  0.6083  -3.3763   0.0000   0.3340
   4.400   1.9901   0.07735   0.07201  -0.1985  0.1467  0.6109  -3.4371   0.0000   0.3323
   4.600   2.0036   0.07791   0.07255  -0.1972  0.1428  0.6131  -3.4966   0.0000   0.3306
   4.800   2.0170   0.07847   0.07310  -0.1959  0.1389  0.6150  -3.5592   0.0000   0.3289
   5.000   2.0305   0.07902   0.07365  -0.1946  0.1352  0.6166  -3.6283   0.0000   0.3273
   5.200   2.0426   0.07966   0.07426  -0.1932  0.1306  0.6179  -3.6949   0.0000   0.3256
   5.400   2.0553   0.08023   0.07483  -0.1918  0.1276  0.6203  -3.7632   0.0000   0.3239
   5.600   2.0678   0.08086   0.07547  -0.1904  0.1253  0.6229  -3.8316   0.0000   0.3223
   5.800   2.0787   0.08160   0.07622  -0.1888  0.1225  0.6253  -3.8996   0.0000   0.3206
   6.000   2.0888   0.08239   0.07701  -0.1871  0.1190  0.6275  -3.9660   0.0000   0.3190
   6.200   2.1001   0.08308   0.07770  -0.1856  0.1163  0.6295  -4.0356   0.0000   0.3174
   6.400   2.1109   0.08380   0.07842  -0.1841  0.1126  0.6314  -4.1066   0.0000   0.3158
   6.600   2.1203   0.08463   0.07923  -0.1824  0.1082  0.6331  -4.1773   0.0000   0.3142
   6.800   2.1316   0.08533   0.07993  -0.1810  0.1055  0.6349  -4.2561   0.0000   0.3126
   7.000   2.1417   0.08613   0.08073  -0.1794  0.1022  0.6364  -4.3345   0.0000   0.3111
   7.200   2.1486   0.08714   0.08173  -0.1775  0.0984  0.6382  -4.4052   0.0000   0.3095
   7.400   2.1567   0.08805   0.08266  -0.1757  0.0957  0.6402  -4.4793   0.0000   0.3079
   7.600   2.1636   0.08904   0.08364  -0.1739  0.0919  0.6419  -4.5507   0.0000   0.3063
   7.800   2.1712   0.08996   0.08456  -0.1721  0.0888  0.6436  -4.6251   0.0000   0.3048
   8.000   2.1796   0.09081   0.08543  -0.1705  0.0862  0.6454  -4.7036   0.0000   0.3033
   8.200   2.1855   0.09193   0.08655  -0.1687  0.0832  0.6471  -4.7780   0.0000   0.3017
   8.400   2.1912   0.09311   0.08775  -0.1668  0.0807  0.6490  -4.8527   0.0000   0.3002
   8.600   2.1981   0.09418   0.08883  -0.1652  0.0780  0.6508  -4.9335   0.0000   0.2987
   8.800   2.2032   0.09542   0.09006  -0.1634  0.0746  0.6524  -5.0097   0.0000   0.2973
   9.000   2.2090   0.09664   0.09129  -0.1618  0.0722  0.6537  -5.0884   0.0000   0.2958
   9.200   2.2131   0.09803   0.09270  -0.1601  0.0695  0.6548  -5.1624   0.0000   0.2944
   9.400   2.2168   0.09936   0.09404  -0.1583  0.0668  0.6559  -5.2386   0.0000   0.2930
   9.600   2.2205   0.10059   0.09529  -0.1566  0.0647  0.6576  -5.3166   0.0000   0.2916
   9.800   2.2222   0.10206   0.09679  -0.1548  0.0624  0.6592  -5.3882   0.0000   0.2902
  10.000   2.2244   0.10347   0.09821  -0.1531  0.0602  0.6608  -5.4616   0.0000   0.2888
  10.200   2.2264   0.10495   0.09972  -0.1515  0.0583  0.6623  -5.5348   0.0000   0.2875
  10.400   2.2276   0.10652   0.10132  -0.1500  0.0562  0.6638  -5.6054   0.0000   0.2862
  10.600   2.2279   0.10822   0.10304  -0.1485  0.0543  0.6651  -5.6730   0.0000   0.2849
  10.800   2.2294   0.10982   0.10468  -0.1471  0.0528  0.6665  -5.7447   0.0000   0.2837
  11.000   2.2300   0.11153   0.10642  -0.1459  0.0509  0.6677  -5.8132   0.0000   0.2825
  11.200   2.2285   0.11350   0.10841  -0.1447  0.0490  0.6689  -5.8746   0.0000   0.2814
  11.400   2.2292   0.11526   0.11021  -0.1436  0.0476  0.6701  -5.9432   0.0000   0.2804
  11.600   2.2289   0.11715   0.11213  -0.1427  0.0458  0.6714  -6.0084   0.0000   0.2793
  11.800   2.2264   0.11931   0.11432  -0.1419  0.0441  0.6724  -6.0656   0.0000   0.2784
  12.000   2.2264   0.12123   0.11629  -0.1412  0.0429  0.6734  -6.1315   0.0000   0.2775
  12.200   2.2252   0.12312   0.11821  -0.1405  0.0416  0.6746  -6.1927   0.0000   0.2766
  12.400   2.2219   0.12516   0.12030  -0.1399  0.0404  0.6758  -6.2456   0.0000   0.2757
  12.600   2.2179   0.12731   0.12249  -0.1395  0.0393  0.6769  -6.2958   0.0000   0.2750
  12.800   2.2160   0.12922   0.12446  -0.1391  0.0385  0.6780  -6.3532   0.0000   0.2742
  13.000   2.2136   0.13120   0.12648  -0.1388  0.0375  0.6791  -6.4082   0.0000   0.2735
  13.200   2.2091   0.13345   0.12878  -0.1388  0.0365  0.6800  -6.4549   0.0000   0.2729
  13.400   2.2038   0.13582   0.13120  -0.1390  0.0356  0.6810  -6.4976   0.0000   0.2724
  13.600   2.2001   0.13799   0.13343  -0.1392  0.0348  0.6820  -6.5461   0.0000   0.2719
  13.800   2.1972   0.14008   0.13557  -0.1394  0.0341  0.6831  -6.5973   0.0000   0.2714
  14.000   2.1925   0.14243   0.13798  -0.1399  0.0333  0.6842  -6.6405   0.0000   0.2711
  14.200   2.1868   0.14493   0.14053  -0.1407  0.0325  0.6854  -6.6788   0.0000   0.2708
  14.400   2.1805   0.14752   0.14318  -0.1416  0.0317  0.6865  -6.7137   0.0000   0.2707
  14.600   2.1759   0.14994   0.14565  -0.1425  0.0311  0.6876  -6.7548   0.0000   0.2705
  14.800   2.1716   0.15234   0.14811  -0.1435  0.0304  0.6887  -6.7965   0.0000   0.2703
  15.000   2.1658   0.15495   0.15078  -0.1448  0.0298  0.6897  -6.8311   0.0000   0.2703
  15.200   2.1594   0.15765   0.15353  -0.1463  0.0292  0.6905  -6.8639   0.0000   0.2704
  15.400   2.1525   0.16041   0.15635  -0.1479  0.0285  0.6912  -6.8949   0.0000   0.2706
  15.600   2.1456   0.16316   0.15915  -0.1496  0.0279  0.6918  -6.9251   0.0000   0.2707
  15.800   2.1387   0.16581   0.16187  -0.1512  0.0275  0.6925  -6.9545   0.0000   0.2709
  16.000   2.1312   0.16844   0.16456  -0.1529  0.0270  0.6934  -6.9802   0.0000   0.2712
  16.200   2.1245   0.17097   0.16715  -0.1545  0.0265  0.6942  -7.0089   0.0000   0.2713
  16.400   2.1166   0.17367   0.16991  -0.1564  0.0260  0.6951  -7.0308   0.0000   0.2717
  16.600   2.1072   0.17660   0.17291  -0.1587  0.0255  0.6959  -7.0437   0.0000   0.2722
  16.800   2.0984   0.17944   0.17581  -0.1608  0.0250  0.6967  -7.0586   0.0000   0.2727
  17.000   2.0904   0.18217   0.17859  -0.1630  0.0245  0.6976  -7.0764   0.0000   0.2732
  17.200   2.0823   0.18493   0.18141  -0.1653  0.0241  0.6985  -7.0926   0.0000   0.2737
  17.400   2.0768   0.18730   0.18384  -0.1671  0.0236  0.6995  -7.1224   0.0000   0.2739
  17.600   2.0681   0.19020   0.18680  -0.1697  0.0232  0.7003  -7.1324   0.0000   0.2746
  17.800   2.0620   0.19269   0.18934  -0.1718  0.0227  0.7013  -7.1571   0.0000   0.2750
  18.000   2.0527   0.19571   0.19241  -0.1746  0.0222  0.7021  -7.1616   0.0000   0.2758
  18.200   2.0463   0.19829   0.19503  -0.1770  0.0217  0.7029  -7.1818   0.0000   0.2764
  18.400   2.0393   0.20099   0.19779  -0.1796  0.0213  0.7038  -7.1971   0.0000   0.2770
  18.600   2.0357   0.20315   0.20000  -0.1816  0.0209  0.7047  -7.2325   0.0000   0.2773
  18.800   2.0285   0.20591   0.20281  -0.1843  0.0205  0.7056  -7.2440   0.0000   0.2780
  19.000   2.0243   0.20819   0.20513  -0.1866  0.0201  0.7064  -7.2742   0.0000   0.2784
  19.200   2.0178   0.21086   0.20784  -0.1893  0.0196  0.7072  -7.2917   0.0000   0.2791
  19.400   2.0122   0.21339   0.21041  -0.1920  0.0192  0.7081  -7.3143   0.0000   0.2798
  19.600   2.0090   0.21555   0.21261  -0.1942  0.0188  0.7090  -7.3517   0.0000   0.2801
  19.800   2.0029   0.21818   0.21529  -0.1971  0.0185  0.7097  -7.3686   0.0000   0.2809
  20.000   1.9998   0.22015   0.21730  -0.1991  0.0181  0.7105  -7.4064   0.0000   0.2812
  20.200   1.9960   0.22209   0.21927  -0.2011  0.0177  0.7114  -7.4401   0.0000   0.2814
  20.400   1.9885   0.22466   0.22190  -0.2040  0.0174  0.7122  -7.4469   0.0000   0.2823
  20.600   1.9843   0.22667   0.22394  -0.2062  0.0170  0.7130  -7.4763   0.0000   0.2827
  20.800   1.9791   0.22886   0.22617  -0.2086  0.0166  0.7137  -7.4982   0.0000   0.2832
  21.000   1.9731   0.23122   0.22857  -0.2114  0.0162  0.7143  -7.5131   0.0000   0.2840
  21.200   1.9703   0.23298   0.23037  -0.2133  0.0159  0.7151  -7.5528   0.0000   0.2842
  21.400   1.9674   0.23476   0.23218  -0.2154  0.0156  0.7158  -7.5913   0.0000   0.2844
  21.600   1.9607   0.23724   0.23471  -0.2184  0.0152  0.7165  -7.5977   0.0000   0.2853
  21.800   1.9573   0.23911   0.23661  -0.2206  0.0149  0.7172  -7.6306   0.0000   0.2857
  22.000   1.9539   0.24099   0.23852  -0.2229  0.0145  0.7180  -7.6623   0.0000   0.2861
  22.200   1.9468   0.24356   0.24113  -0.2261  0.0142  0.7187  -7.6622   0.0000   0.2871
  22.400   1.9449   0.24519   0.24279  -0.2281  0.0139  0.7195  -7.7044   0.0000   0.2873
  22.600   1.9433   0.24677   0.24441  -0.2301  0.0137  0.7204  -7.7488   0.0000   0.2874
  22.800   1.9385   0.24894   0.24662  -0.2329  0.0135  0.7213  -7.7648   0.0000   0.2881
  23.000   1.9354   0.25082   0.24853  -0.2353  0.0132  0.7222  -7.7944   0.0000   0.2885
  23.200   1.9335   0.25247   0.25021  -0.2375  0.0129  0.7233  -7.8342   0.0000   0.2887
  23.400   1.9310   0.25425   0.25202  -0.2399  0.0126  0.7243  -7.8674   0.0000   0.2891
  23.600   1.9249   0.25667   0.25448  -0.2432  0.0124  0.7251  -7.8674   0.0000   0.2901
  23.800   1.9225   0.25842   0.25626  -0.2455  0.0121  0.7259  -7.8999   0.0000   0.2904
  24.000   1.9213   0.25992   0.25778  -0.2476  0.0119  0.7266  -7.9432   0.0000   0.2906
  24.200   1.9168   0.26199   0.25990  -0.2505  0.0117  0.7272  -7.9554   0.0000   0.2913


