xflr5 v6.47

 Calculated polar for: NACA24018_theta30_Ku4.5_Kl0.5_d0.21_delta5.84

 1 1 Reynolds number fixed          Mach number fixed         

 xtrf =   1.000 (top)        1.000 (bottom)
 Mach =   0.000     Re =     1.200 e 6     Ncrit =   5.000

  alpha     CL        CD       CDp       Cm    Top Xtr Bot Xtr   Cpmin    Chinge    XCp    
 ------- -------- --------- --------- -------- ------- ------- -------- --------- ---------
 -15.000  -0.8798   0.03346   0.02870  -0.0936  0.8930  0.0318  -6.0739   0.0000   0.1197
 -14.800  -0.8597   0.03298   0.02819  -0.0944  0.8926  0.0321  -5.9388   0.0000   0.1165
 -14.600  -0.8374   0.03253   0.02772  -0.0954  0.8922  0.0325  -5.7973   0.0000   0.1125
 -14.400  -0.8135   0.03207   0.02725  -0.0967  0.8918  0.0330  -5.6516   0.0000   0.1075
 -14.200  -0.7883   0.03167   0.02685  -0.0981  0.8915  0.0335  -5.5022   0.0000   0.1020
 -14.000  -0.7619   0.03133   0.02651  -0.0996  0.8912  0.0340  -5.3497   0.0000   0.0956
 -13.800  -0.7446   0.03079   0.02597  -0.0996  0.8874  0.0345  -5.2291   0.0000   0.0927
 -13.600  -0.7196   0.03046   0.02563  -0.1007  0.8863  0.0350  -5.0839   0.0000   0.0864
 -13.400  -0.6925   0.03016   0.02532  -0.1022  0.8854  0.0356  -4.9347   0.0000   0.0787
 -13.200  -0.6637   0.02987   0.02501  -0.1039  0.8847  0.0362  -4.7867   0.0000   0.0695
 -13.000  -0.6330   0.02955   0.02470  -0.1059  0.8841  0.0370  -4.6344   0.0000   0.0584
 -12.800  -0.6013   0.02926   0.02442  -0.1080  0.8836  0.0379  -4.4804   0.0000   0.0456
 -12.600  -0.5691   0.02899   0.02415  -0.1102  0.8832  0.0387  -4.3273   0.0000   0.0312
 -12.400  -0.5378   0.02879   0.02394  -0.1121  0.8829  0.0395  -4.1787   0.0000   0.0157
 -12.200  -0.5162   0.02856   0.02371  -0.1125  0.8803  0.0401  -4.0601   0.0000   0.0060
 -12.000  -0.4904   0.02836   0.02353  -0.1137  0.8786  0.0410  -3.9305   0.0000  -0.0083
 -11.800  -0.4603   0.02816   0.02334  -0.1154  0.8775  0.0420  -3.7903   0.0000  -0.0280
 -11.600  -0.4297   0.02798   0.02316  -0.1172  0.8767  0.0431  -3.6501   0.0000  -0.0510
 -11.400  -0.3988   0.02781   0.02299  -0.1190  0.8761  0.0441  -3.5113   0.0000  -0.0777
 -11.200  -0.3657   0.02761   0.02280  -0.1212  0.8756  0.0453  -3.3686   0.0000  -0.1124
 -11.000  -0.3319   0.02739   0.02260  -0.1235  0.8751  0.0466  -3.2293   0.0000  -0.1548
 -10.800  -0.2958   0.02709   0.02230  -0.1261  0.8746  0.0480  -3.0894   0.0000  -0.2116
 -10.600  -0.2540   0.02660   0.02182  -0.1296  0.8740  0.0496  -2.9379   0.0000  -0.2998
 -10.400  -0.2417   0.02674   0.02198  -0.1283  0.8692  0.0507  -2.8591   0.0000  -0.3212
 -10.200  -0.2083   0.02647   0.02172  -0.1304  0.8676  0.0524  -2.7312   0.0000  -0.4212
 -10.000  -0.1746   0.02622   0.02148  -0.1326  0.8665  0.0539  -2.6048   0.0000  -0.5613
  -9.800  -0.1420   0.02609   0.02137  -0.1346  0.8658  0.0557  -2.4843   0.0000  -0.7593
  -9.600  -0.1090   0.02591   0.02120  -0.1367  0.8652  0.0576  -2.3689   0.0000  -1.0806
  -9.400  -0.0997   0.02645   0.02176  -0.1348  0.8595  0.0586  -2.3049   0.0000  -1.1843
  -9.000  -0.0906   0.02835   0.02374  -0.1299  0.8244  0.0610  -2.1988   0.0000  -1.2683
  -8.800  -0.0529   0.02799   0.02338  -0.1325  0.8174  0.0635  -2.0775   0.0000  -2.3945
  -8.600  -0.0092   0.02743   0.02283  -0.1361  0.8112  0.0669  -1.9492   0.0000  -15.2318
  -8.400   0.0380   0.02666   0.02205  -0.1403  0.8046  0.0704  -1.8204   0.0000   4.1184
  -8.200   0.1011   0.02520   0.02054  -0.1472  0.7929  0.0755  -1.6656   0.0000   1.7665
  -8.000   0.1736   0.02326   0.01841  -0.1557  0.7588  0.0818  -1.4999   0.0000   1.1809
  -7.800   0.1963   0.02336   0.01826  -0.1559  0.7051  0.0856  -1.4234   0.0000   1.0731
  -7.600   0.2154   0.02371   0.01846  -0.1556  0.6677  0.0893  -1.3539   0.0000   0.9972
  -7.200   0.2616   0.02426   0.01881  -0.1562  0.6109  0.0988  -1.2078   0.0000   0.8657
  -7.000   0.2876   0.02449   0.01897  -0.1571  0.5891  0.1050  -1.1362   0.0000   0.8120
  -6.800   0.3144   0.02470   0.01913  -0.1581  0.5687  0.1121  -1.0657   0.0000   0.7664
  -6.600   0.3415   0.02491   0.01928  -0.1591  0.5486  0.1199  -0.9958   0.0000   0.7276
  -6.400   0.3687   0.02512   0.01942  -0.1601  0.5281  0.1285  -0.9268   0.0000   0.6944
  -6.200   0.3977   0.02533   0.01959  -0.1615  0.5075  0.1402  -0.8596   0.0000   0.6649
  -6.000   0.4275   0.02555   0.01977  -0.1630  0.4889  0.1541  -0.8363   0.0000   0.6388
  -5.800   0.4596   0.02578   0.01999  -0.1650  0.4712  0.1732  -0.8669   0.0000   0.6154
  -5.600   0.4947   0.02607   0.02027  -0.1675  0.4530  0.2008  -0.8997   0.0000   0.5940
  -5.200   0.5973   0.02730   0.02174  -0.1789  0.4158  0.3411  -0.9906   0.0000   0.5530
  -5.000   0.6377   0.02780   0.02228  -0.1824  0.4013  0.3820  -1.0297   0.0000   0.5388
  -4.800   0.6717   0.02820   0.02266  -0.1846  0.3884  0.4081  -1.0655   0.0000   0.5271
  -4.600   0.7033   0.02855   0.02298  -0.1864  0.3760  0.4267  -1.1002   0.0000   0.5167
  -4.400   0.7340   0.02889   0.02332  -0.1879  0.3674  0.4419  -1.1345   0.0000   0.5072
  -4.000   0.7938   0.02956   0.02395  -0.1907  0.3496  0.4720  -1.2026   0.0000   0.4905
  -3.800   0.8248   0.02993   0.02430  -0.1923  0.3404  0.4878  -1.2378   0.0000   0.4830
  -3.600   0.8567   0.03033   0.02471  -0.1941  0.3342  0.5041  -1.2740   0.0000   0.4759
  -3.400   0.8873   0.03072   0.02509  -0.1956  0.3281  0.5186  -1.3095   0.0000   0.4694
  -3.200   0.9135   0.03100   0.02533  -0.1962  0.3221  0.5281  -1.3424   0.0000   0.4634
  -3.000   0.9399   0.03129   0.02562  -0.1969  0.3176  0.5346  -1.3777   0.0000   0.4578
  -2.800   0.9649   0.03156   0.02587  -0.1973  0.3124  0.5399  -1.4121   0.0000   0.4525
  -2.600   0.9885   0.03180   0.02607  -0.1975  0.3064  0.5444  -1.4454   0.0000   0.4474
  -2.400   1.0114   0.03202   0.02626  -0.1976  0.3014  0.5481  -1.4784   0.0000   0.4426
  -2.200   1.0356   0.03228   0.02651  -0.1978  0.2973  0.5523  -1.5126   0.0000   0.4380
  -2.000   1.0604   0.03257   0.02678  -0.1982  0.2929  0.5574  -1.5475   0.0000   0.4336
  -1.800   1.0841   0.03283   0.02702  -0.1984  0.2887  0.5622  -1.5817   0.0000   0.4294
  -1.600   1.1069   0.03308   0.02725  -0.1984  0.2852  0.5664  -1.6153   0.0000   0.4253
  -1.400   1.1294   0.03331   0.02748  -0.1984  0.2825  0.5697  -1.6516   0.0000   0.4214
  -1.200   1.1532   0.03360   0.02776  -0.1986  0.2790  0.5739  -1.6894   0.0000   0.4176
  -1.000   1.1765   0.03388   0.02803  -0.1987  0.2747  0.5783  -1.7269   0.0000   0.4140
  -0.800   1.1991   0.03415   0.02827  -0.1987  0.2699  0.5830  -1.7640   0.0000   0.4105
  -0.600   1.2215   0.03441   0.02852  -0.1986  0.2669  0.5872  -1.8011   0.0000   0.4071
  -0.400   1.2438   0.03467   0.02878  -0.1985  0.2637  0.5908  -1.8383   0.0000   0.4039
  -0.200   1.2664   0.03496   0.02907  -0.1985  0.2603  0.5949  -1.8760   0.0000   0.4007
   0.000   1.2885   0.03525   0.02934  -0.1984  0.2570  0.5988  -1.9134   0.0000   0.3976
   0.200   1.3102   0.03553   0.02961  -0.1982  0.2535  0.6029  -1.9505   0.0000   0.3947
   0.400   1.3321   0.03582   0.02990  -0.1981  0.2514  0.6069  -1.9885   0.0000   0.3918
   0.600   1.3538   0.03610   0.03018  -0.1979  0.2487  0.6104  -2.0276   0.0000   0.3889
   0.800   1.3755   0.03640   0.03049  -0.1977  0.2455  0.6144  -2.0694   0.0000   0.3862
   1.000   1.3966   0.03671   0.03078  -0.1974  0.2417  0.6182  -2.1115   0.0000   0.3835
   1.200   1.4174   0.03703   0.03108  -0.1971  0.2379  0.6221  -2.1535   0.0000   0.3809
   1.400   1.4387   0.03733   0.03140  -0.1968  0.2355  0.6260  -2.1963   0.0000   0.3784
   1.600   1.4598   0.03765   0.03171  -0.1965  0.2327  0.6292  -2.2391   0.0000   0.3759
   1.800   1.4800   0.03796   0.03202  -0.1961  0.2295  0.6327  -2.2811   0.0000   0.3735
   2.000   1.4996   0.03828   0.03233  -0.1955  0.2262  0.6360  -2.3227   0.0000   0.3711
   2.200   1.5192   0.03860   0.03265  -0.1950  0.2230  0.6393  -2.3643   0.0000   0.3688
   2.400   1.5394   0.03892   0.03298  -0.1945  0.2212  0.6429  -2.4070   0.0000   0.3665
   2.600   1.5596   0.03926   0.03333  -0.1941  0.2188  0.6464  -2.4510   0.0000   0.3643
   2.800   1.5798   0.03962   0.03369  -0.1937  0.2160  0.6493  -2.4958   0.0000   0.3621
   3.000   1.5981   0.03997   0.03403  -0.1929  0.2127  0.6523  -2.5395   0.0000   0.3599
   3.200   1.6157   0.04034   0.03440  -0.1921  0.2092  0.6555  -2.5834   0.0000   0.3577
   3.400   1.6340   0.04071   0.03478  -0.1913  0.2069  0.6588  -2.6300   0.0000   0.3556
   3.600   1.6524   0.04110   0.03519  -0.1906  0.2040  0.6621  -2.6777   0.0000   0.3535
   3.800   1.6707   0.04153   0.03561  -0.1898  0.2009  0.6651  -2.7266   0.0000   0.3515
   4.000   1.6887   0.04199   0.03606  -0.1891  0.1974  0.6676  -2.7754   0.0000   0.3495
   4.200   1.7071   0.04245   0.03652  -0.1884  0.1945  0.6698  -2.8270   0.0000   0.3476
   4.400   1.7233   0.04281   0.03690  -0.1873  0.1922  0.6726  -2.8772   0.0000   0.3456
   4.600   1.7394   0.04319   0.03730  -0.1862  0.1894  0.6755  -2.9276   0.0000   0.3436
   4.800   1.7554   0.04362   0.03773  -0.1851  0.1863  0.6783  -2.9782   0.0000   0.3417
   5.000   1.7713   0.04410   0.03820  -0.1840  0.1830  0.6809  -3.0289   0.0000   0.3398
   5.200   1.7883   0.04455   0.03867  -0.1831  0.1806  0.6835  -3.0829   0.0000   0.3379
   5.400   1.8058   0.04504   0.03918  -0.1823  0.1780  0.6861  -3.1425   0.0000   0.3362
   5.600   1.8232   0.04559   0.03973  -0.1815  0.1749  0.6885  -3.2024   0.0000   0.3344
   5.800   1.8379   0.04617   0.04030  -0.1802  0.1713  0.6906  -3.2581   0.0000   0.3326
   6.000   1.8507   0.04668   0.04082  -0.1787  0.1683  0.6927  -3.3108   0.0000   0.3307
   6.200   1.8638   0.04719   0.04135  -0.1772  0.1653  0.6949  -3.3644   0.0000   0.3289
   6.400   1.8768   0.04774   0.04192  -0.1757  0.1624  0.6972  -3.4211   0.0000   0.3270
   6.600   1.8899   0.04835   0.04254  -0.1742  0.1594  0.6996  -3.4833   0.0000   0.3253
   6.800   1.9040   0.04897   0.04316  -0.1730  0.1567  0.7019  -3.5477   0.0000   0.3235
   7.000   1.9185   0.04961   0.04381  -0.1718  0.1534  0.7041  -3.6135   0.0000   0.3219
   7.200   1.9319   0.05037   0.04457  -0.1705  0.1492  0.7060  -3.6801   0.0000   0.3202
   7.400   1.9452   0.05121   0.04540  -0.1692  0.1457  0.7077  -3.7474   0.0000   0.3185
   7.600   1.9591   0.05200   0.04622  -0.1680  0.1429  0.7093  -3.8205   0.0000   0.3169
   7.800   1.9681   0.05267   0.04690  -0.1660  0.1401  0.7112  -3.8838   0.0000   0.3151
   8.000   1.9766   0.05341   0.04766  -0.1640  0.1371  0.7129  -3.9524   0.0000   0.3133
   8.200   1.9863   0.05411   0.04838  -0.1622  0.1345  0.7148  -4.0241   0.0000   0.3116
   8.400   1.9954   0.05492   0.04921  -0.1603  0.1315  0.7165  -4.0953   0.0000   0.3099
   8.600   2.0032   0.05591   0.05021  -0.1584  0.1281  0.7182  -4.1638   0.0000   0.3082
   8.800   2.0120   0.05688   0.05119  -0.1566  0.1251  0.7201  -4.2351   0.0000   0.3066
   9.000   2.0224   0.05782   0.05216  -0.1551  0.1220  0.7220  -4.3107   0.0000   0.3050
   9.200   2.0306   0.05904   0.05339  -0.1533  0.1181  0.7238  -4.3817   0.0000   0.3034
   9.400   2.0391   0.06031   0.05466  -0.1517  0.1147  0.7255  -4.4542   0.0000   0.3018
   9.600   2.0482   0.06159   0.05595  -0.1502  0.1108  0.7270  -4.5281   0.0000   0.3003
   9.800   2.0550   0.06309   0.05746  -0.1486  0.1074  0.7282  -4.5972   0.0000   0.2988
  10.000   2.0601   0.06423   0.05864  -0.1466  0.1049  0.7294  -4.6646   0.0000   0.2972
  10.200   2.0636   0.06541   0.05985  -0.1444  0.1024  0.7306  -4.7316   0.0000   0.2956
  10.400   2.0649   0.06684   0.06131  -0.1421  0.0999  0.7318  -4.7931   0.0000   0.2940
  10.600   2.0680   0.06815   0.06266  -0.1401  0.0978  0.7331  -4.8592   0.0000   0.2924
  10.800   2.0707   0.06956   0.06411  -0.1381  0.0954  0.7344  -4.9246   0.0000   0.2909
  11.000   2.0717   0.07123   0.06581  -0.1362  0.0929  0.7356  -4.9863   0.0000   0.2895
  11.200   2.0727   0.07299   0.06761  -0.1343  0.0905  0.7369  -5.0496   0.0000   0.2881
  11.400   2.0747   0.07476   0.06942  -0.1327  0.0879  0.7381  -5.1160   0.0000   0.2867
  11.600   2.0747   0.07684   0.07153  -0.1312  0.0850  0.7392  -5.1764   0.0000   0.2854
  11.800   2.0751   0.07895   0.07368  -0.1298  0.0826  0.7404  -5.2383   0.0000   0.2842
  12.000   2.0756   0.08114   0.07591  -0.1286  0.0799  0.7418  -5.3001   0.0000   0.2831
  12.200   2.0742   0.08362   0.07843  -0.1275  0.0774  0.7431  -5.3561   0.0000   0.2821
  12.400   2.0758   0.08591   0.08076  -0.1267  0.0753  0.7445  -5.4212   0.0000   0.2811
  12.600   2.0759   0.08848   0.08337  -0.1260  0.0729  0.7457  -5.4812   0.0000   0.2802
  12.800   2.0738   0.09135   0.08628  -0.1255  0.0707  0.7468  -5.5343   0.0000   0.2794
  13.000   2.0713   0.09372   0.08872  -0.1248  0.0690  0.7476  -5.5862   0.0000   0.2785
  13.200   2.0667   0.09613   0.09118  -0.1239  0.0673  0.7484  -5.6313   0.0000   0.2777
  13.400   2.0605   0.09878   0.09389  -0.1232  0.0655  0.7490  -5.6702   0.0000   0.2769
  13.600   2.0541   0.10148   0.09665  -0.1228  0.0641  0.7497  -5.7078   0.0000   0.2763
  13.800   2.0487   0.10409   0.09933  -0.1224  0.0626  0.7503  -5.7480   0.0000   0.2757
  14.000   2.0419   0.10690   0.10221  -0.1223  0.0611  0.7510  -5.7826   0.0000   0.2752
  14.200   2.0336   0.10995   0.10531  -0.1224  0.0596  0.7517  -5.8107   0.0000   0.2749
  14.400   2.0262   0.11291   0.10834  -0.1227  0.0583  0.7525  -5.8411   0.0000   0.2746
  14.600   2.0198   0.11578   0.11128  -0.1230  0.0569  0.7533  -5.8742   0.0000   0.2743
  14.800   2.0123   0.11890   0.11447  -0.1237  0.0554  0.7541  -5.9021   0.0000   0.2742
  15.000   2.0035   0.12230   0.11793  -0.1247  0.0541  0.7549  -5.9232   0.0000   0.2743
  15.200   1.9961   0.12554   0.12124  -0.1258  0.0529  0.7557  -5.9494   0.0000   0.2744
  15.400   1.9889   0.12882   0.12459  -0.1271  0.0518  0.7565  -5.9769   0.0000   0.2746
  15.600   1.9810   0.13226   0.12809  -0.1286  0.0506  0.7574  -6.0013   0.0000   0.2749
  15.800   1.9720   0.13590   0.13180  -0.1304  0.0495  0.7582  -6.0195   0.0000   0.2754
  16.000   1.9634   0.13951   0.13548  -0.1323  0.0485  0.7590  -6.0382   0.0000   0.2760
  16.200   1.9576   0.14280   0.13884  -0.1342  0.0475  0.7599  -6.0678   0.0000   0.2764
  16.400   1.9505   0.14636   0.14246  -0.1363  0.0464  0.7608  -6.0899   0.0000   0.2771
  16.600   1.9420   0.15020   0.14637  -0.1389  0.0453  0.7617  -6.1042   0.0000   0.2779
  16.800   1.9330   0.15421   0.15044  -0.1417  0.0443  0.7626  -6.1141   0.0000   0.2789
  17.000   1.9288   0.15764   0.15393  -0.1442  0.0433  0.7637  -6.1453   0.0000   0.2796
  17.200   1.9238   0.16127   0.15763  -0.1470  0.0422  0.7647  -6.1708   0.0000   0.2805
  17.400   1.9147   0.16489   0.16131  -0.1496  0.0412  0.7654  -6.1778   0.0000   0.2815
  17.600   1.9052   0.16821   0.16469  -0.1519  0.0403  0.7660  -6.1827   0.0000   0.2823
  17.800   1.8962   0.17144   0.16798  -0.1541  0.0395  0.7666  -6.1892   0.0000   0.2831
  18.000   1.8885   0.17447   0.17106  -0.1563  0.0387  0.7671  -6.2013   0.0000   0.2839
  18.200   1.8813   0.17743   0.17408  -0.1584  0.0379  0.7676  -6.2145   0.0000   0.2846
  18.400   1.8731   0.18060   0.17731  -0.1609  0.0371  0.7681  -6.2213   0.0000   0.2855
  18.600   1.8655   0.18370   0.18045  -0.1633  0.0363  0.7686  -6.2299   0.0000   0.2864
  18.800   1.8589   0.18666   0.18347  -0.1657  0.0356  0.7691  -6.2421   0.0000   0.2872
  19.000   1.8539   0.18939   0.18624  -0.1679  0.0348  0.7697  -6.2626   0.0000   0.2879
  19.200   1.8494   0.19205   0.18895  -0.1701  0.0340  0.7702  -6.2849   0.0000   0.2885
  19.400   1.8424   0.19521   0.19216  -0.1729  0.0332  0.7708  -6.2905   0.0000   0.2896
  19.600   1.8373   0.19798   0.19496  -0.1753  0.0325  0.7715  -6.3073   0.0000   0.2904
  19.800   1.8321   0.20081   0.19785  -0.1779  0.0318  0.7722  -6.3214   0.0000   0.2913
  20.000   1.8293   0.20322   0.20029  -0.1800  0.0311  0.7730  -6.3498   0.0000   0.2919
  20.200   1.8263   0.20570   0.20281  -0.1823  0.0304  0.7739  -6.3762   0.0000   0.2925
  20.400   1.8209   0.20871   0.20586  -0.1853  0.0298  0.7747  -6.3851   0.0000   0.2936
  20.600   1.8178   0.21137   0.20855  -0.1879  0.0291  0.7756  -6.4085   0.0000   0.2944
  20.800   1.8155   0.21399   0.21122  -0.1906  0.0285  0.7765  -6.4385   0.0000   0.2952
  21.000   1.8144   0.21650   0.21378  -0.1932  0.0278  0.7775  -6.4749   0.0000   0.2958
  21.200   1.8143   0.21898   0.21628  -0.1958  0.0271  0.7786  -6.5159   0.0000   0.2965
  21.400   1.8119   0.22197   0.21931  -0.1991  0.0264  0.7797  -6.5394   0.0000   0.2976
  21.600   1.8104   0.22487   0.22223  -0.2024  0.0258  0.7807  -6.5676   0.0000   0.2986
  21.800   1.8125   0.22721   0.22461  -0.2051  0.0252  0.7818  -6.6197   0.0000   0.2991
  22.000   1.8105   0.22967   0.22711  -0.2078  0.0246  0.7824  -6.6478   0.0000   0.2999
  22.200   1.8074   0.23188   0.22936  -0.2100  0.0241  0.7828  -6.6724   0.0000   0.3005
  22.400   1.8048   0.23401   0.23151  -0.2122  0.0236  0.7833  -6.6994   0.0000   0.3011
  22.600   1.8004   0.23647   0.23401  -0.2149  0.0231  0.7837  -6.7119   0.0000   0.3019
  22.800   1.7974   0.23861   0.23618  -0.2172  0.0227  0.7841  -6.7349   0.0000   0.3026
  23.000   1.7960   0.24040   0.23801  -0.2190  0.0222  0.7846  -6.7706   0.0000   0.3029
  23.200   1.7942   0.24228   0.23993  -0.2210  0.0218  0.7851  -6.8023   0.0000   0.3032
  23.400   1.7906   0.24457   0.24225  -0.2236  0.0213  0.7856  -6.8171   0.0000   0.3040
  23.600   1.7882   0.24659   0.24430  -0.2258  0.0209  0.7861  -6.8421   0.0000   0.3046
  23.800   1.7858   0.24864   0.24637  -0.2282  0.0204  0.7866  -6.8657   0.0000   0.3052
  24.000   1.7822   0.25098   0.24875  -0.2309  0.0200  0.7870  -6.8767   0.0000   0.3061
  24.200   1.7813   0.25275   0.25056  -0.2329  0.0197  0.7875  -6.9116   0.0000   0.3064
  24.400   1.7807   0.25450   0.25234  -0.2350  0.0192  0.7881  -6.9476   0.0000   0.3067
  24.600   1.7786   0.25657   0.25443  -0.2375  0.0188  0.7886  -6.9699   0.0000   0.3074
  24.800   1.7759   0.25880   0.25670  -0.2402  0.0183  0.7891  -6.9846   0.0000   0.3082
  25.000   1.7741   0.26088   0.25880  -0.2427  0.0179  0.7897  -7.0059   0.0000   0.3088


