xflr5 v6.47

 Calculated polar for: NACA24018_theta30_Ku4.5_Kl0.5_d0.07_delta1.57

 1 1 Reynolds number fixed          Mach number fixed         

 xtrf =   1.000 (top)        1.000 (bottom)
 Mach =   0.000     Re =     2.400 e 6     Ncrit =   5.000

  alpha     CL        CD       CDp       Cm    Top Xtr Bot Xtr   Cpmin    Chinge    XCp    
 ------- -------- --------- --------- -------- ------- ------- -------- --------- ---------
 -15.000  -1.1207   0.02206   0.01730  -0.0787  0.9785  0.0227  -7.1497   0.0000   0.1570
 -14.800  -1.1004   0.02159   0.01682  -0.0794  0.9777  0.0231  -6.9996   0.0000   0.1554
 -14.600  -1.0787   0.02119   0.01642  -0.0802  0.9772  0.0234  -6.8467   0.0000   0.1534
 -14.400  -1.0675   0.02047   0.01568  -0.0789  0.9739  0.0237  -6.7323   0.0000   0.1542
 -14.200  -1.0486   0.01999   0.01520  -0.0790  0.9728  0.0240  -6.5913   0.0000   0.1530
 -14.000  -1.0278   0.01958   0.01478  -0.0795  0.9721  0.0243  -6.4445   0.0000   0.1513
 -13.800  -1.0063   0.01919   0.01439  -0.0800  0.9716  0.0247  -6.2963   0.0000   0.1493
 -13.600  -0.9839   0.01885   0.01403  -0.0807  0.9713  0.0250  -6.1462   0.0000   0.1470
 -13.400  -0.9808   0.01824   0.01341  -0.0776  0.9679  0.0252  -6.0631   0.0000   0.1503
 -13.200  -0.9625   0.01785   0.01301  -0.0774  0.9668  0.0254  -5.9289   0.0000   0.1493
 -13.000  -0.9422   0.01749   0.01264  -0.0775  0.9660  0.0255  -5.7891   0.0000   0.1476
 -12.800  -0.9220   0.01710   0.01224  -0.0777  0.9655  0.0260  -5.6518   0.0000   0.1458
 -12.600  -0.9010   0.01673   0.01187  -0.0780  0.9650  0.0265  -5.5125   0.0000   0.1437
 -12.400  -0.9025   0.01620   0.01133  -0.0738  0.9603  0.0268  -5.4472   0.0000   0.1490
 -12.200  -0.8854   0.01581   0.01094  -0.0732  0.9588  0.0273  -5.3219   0.0000   0.1483
 -12.000  -0.9110   0.01543   0.01053  -0.0643  0.9399  0.0274  -5.3345   0.0000   0.1611
 -11.800  -0.8973   0.01508   0.01017  -0.0629  0.9358  0.0278  -5.2208   0.0000   0.1618
 -11.600  -0.8810   0.01472   0.00980  -0.0621  0.9331  0.0282  -5.0994   0.0000   0.1617
 -11.400  -0.8628   0.01438   0.00946  -0.0615  0.9289  0.0286  -4.9770   0.0000   0.1611
 -11.200  -0.8401   0.01404   0.00911  -0.0618  0.9252  0.0290  -4.8432   0.0000   0.1590
 -11.000  -0.8139   0.01368   0.00874  -0.0628  0.9222  0.0293  -4.7006   0.0000   0.1555
 -10.800  -0.7856   0.01328   0.00834  -0.0642  0.9173  0.0299  -4.5542   0.0000   0.1510
 -10.600  -0.7536   0.01285   0.00789  -0.0663  0.9117  0.0307  -4.4048   0.0000   0.1447
 -10.400  -0.7200   0.01243   0.00747  -0.0688  0.9032  0.0315  -4.2529   0.0000   0.1372
 -10.200  -0.6780   0.01198   0.00699  -0.0729  0.8926  0.0324  -4.0804   0.0000   0.1249
 -10.000  -0.6432   0.01165   0.00657  -0.0756  0.8676  0.0331  -3.9299   0.0000   0.1148
  -9.800  -0.6247   0.01150   0.00630  -0.0749  0.8352  0.0335  -3.8234   0.0000   0.1124
  -9.600  -0.6104   0.01139   0.00607  -0.0734  0.8040  0.0340  -3.7289   0.0000   0.1122
  -9.400  -0.5955   0.01126   0.00585  -0.0721  0.7755  0.0348  -3.6338   0.0000   0.1116
  -9.200  -0.5789   0.01114   0.00565  -0.0711  0.7522  0.0357  -3.5351   0.0000   0.1100
  -9.000  -0.5607   0.01101   0.00547  -0.0704  0.7328  0.0366  -3.4331   0.0000   0.1073
  -8.800  -0.5414   0.01089   0.00530  -0.0698  0.7148  0.0375  -3.3298   0.0000   0.1039
  -8.600  -0.5214   0.01079   0.00513  -0.0694  0.6956  0.0381  -3.2257   0.0000   0.0997
  -8.400  -0.5008   0.01069   0.00497  -0.0692  0.6771  0.0388  -3.1213   0.0000   0.0947
  -8.200  -0.4801   0.01057   0.00480  -0.0689  0.6606  0.0400  -3.0180   0.0000   0.0891
  -8.000  -0.4591   0.01046   0.00465  -0.0687  0.6456  0.0411  -2.9153   0.0000   0.0830
  -7.800  -0.4381   0.01035   0.00452  -0.0685  0.6327  0.0421  -2.8134   0.0000   0.0761
  -7.600  -0.4169   0.01026   0.00439  -0.0683  0.6189  0.0432  -2.7126   0.0000   0.0685
  -7.400  -0.3957   0.01019   0.00427  -0.0681  0.6042  0.0441  -2.6128   0.0000   0.0599
  -7.200  -0.3744   0.01010   0.00414  -0.0680  0.5889  0.0457  -2.5189   0.0000   0.0504
  -7.000  -0.3529   0.01002   0.00402  -0.0678  0.5744  0.0471  -2.4256   0.0000   0.0394
  -6.800  -0.3312   0.00995   0.00392  -0.0677  0.5608  0.0484  -2.3329   0.0000   0.0268
  -6.400  -0.2875   0.00983   0.00372  -0.0676  0.5323  0.0513  -2.1509   0.0000  -0.0047
  -6.200  -0.2655   0.00976   0.00362  -0.0675  0.5185  0.0533  -2.0655   0.0000  -0.0246
  -6.000  -0.2433   0.00970   0.00354  -0.0675  0.5065  0.0550  -1.9810   0.0000  -0.0484
  -5.800  -0.2211   0.00966   0.00346  -0.0674  0.4942  0.0562  -1.8973   0.0000  -0.0772
  -5.600  -0.1988   0.00961   0.00338  -0.0674  0.4811  0.0585  -1.8148   0.0000  -0.1125
  -5.400  -0.1765   0.00957   0.00331  -0.0674  0.4680  0.0609  -1.7333   0.0000  -0.1571
  -5.200  -0.1541   0.00953   0.00324  -0.0674  0.4564  0.0630  -1.6561   0.0000  -0.2149
  -5.000  -0.1315   0.00949   0.00318  -0.0675  0.4459  0.0659  -1.5804   0.0000  -0.2931
  -4.800  -0.1088   0.00944   0.00312  -0.0675  0.4358  0.0691  -1.5056   0.0000  -0.4045
  -4.600  -0.0862   0.00942   0.00307  -0.0676  0.4249  0.0716  -1.4318   0.0000  -0.5739
  -4.400  -0.0635   0.00940   0.00302  -0.0676  0.4131  0.0754  -1.3590   0.0000  -0.8655
  -4.200  -0.0408   0.00937   0.00298  -0.0677  0.4021  0.0797  -1.2871   0.0000  -1.4856
  -4.000  -0.0179   0.00934   0.00293  -0.0678  0.3926  0.0841  -1.2170   0.0000  -3.7024
  -3.800   0.0051   0.00932   0.00290  -0.0679  0.3827  0.0895  -1.1507   0.0000  14.1889
  -3.600   0.0280   0.00930   0.00287  -0.0680  0.3726  0.0949  -1.0853   0.0000   2.7630
  -3.400   0.0511   0.00928   0.00284  -0.0682  0.3644  0.1004  -1.0206   0.0000   1.6252
  -3.000   0.0976   0.00924   0.00279  -0.0685  0.3503  0.1138  -0.9002   0.0000   0.9692
  -2.800   0.1212   0.00921   0.00278  -0.0687  0.3436  0.1242  -0.8445   0.0000   0.8298
  -2.600   0.1449   0.00917   0.00276  -0.0690  0.3382  0.1352  -0.7921   0.0000   0.7351
  -2.400   0.1688   0.00914   0.00275  -0.0693  0.3316  0.1481  -0.8166   0.0000   0.6671
  -2.200   0.1931   0.00909   0.00274  -0.0698  0.3253  0.1672  -0.8415   0.0000   0.6156
  -1.800   0.2451   0.00891   0.00272  -0.0714  0.3138  0.2332  -0.8962   0.0000   0.5431
  -1.600   0.2755   0.00869   0.00270  -0.0733  0.3096  0.2982  -0.9268   0.0000   0.5167
  -1.400   0.3048   0.00858   0.00271  -0.0749  0.3045  0.3468  -0.9568   0.0000   0.4954
  -1.200   0.3341   0.00850   0.00274  -0.0764  0.2986  0.3912  -0.9871   0.0000   0.4778
  -1.000   0.3626   0.00844   0.00277  -0.0778  0.2952  0.4262  -1.0182   0.0000   0.4628
  -0.800   0.3899   0.00843   0.00282  -0.0788  0.2908  0.4498  -1.0497   0.0000   0.4500
  -0.600   0.4166   0.00845   0.00287  -0.0797  0.2857  0.4720  -1.0816   0.0000   0.4387
  -0.400   0.4437   0.00845   0.00292  -0.0807  0.2825  0.4918  -1.1140   0.0000   0.4288
  -0.200   0.4707   0.00846   0.00297  -0.0816  0.2796  0.5114  -1.1465   0.0000   0.4199
   0.000   0.4984   0.00848   0.00303  -0.0827  0.2761  0.5333  -1.1798   0.0000   0.4121
   0.200   0.5260   0.00852   0.00310  -0.0838  0.2722  0.5538  -1.2132   0.0000   0.4051
   0.400   0.5529   0.00856   0.00317  -0.0847  0.2694  0.5709  -1.2463   0.0000   0.3987
   0.600   0.5792   0.00860   0.00323  -0.0855  0.2667  0.5831  -1.2791   0.0000   0.3928
   0.800   0.6040   0.00867   0.00330  -0.0859  0.2632  0.5914  -1.3110   0.0000   0.3872
   1.000   0.6286   0.00875   0.00337  -0.0864  0.2591  0.5990  -1.3438   0.0000   0.3820
   1.200   0.6527   0.00882   0.00344  -0.0867  0.2562  0.6053  -1.3770   0.0000   0.3771
   1.400   0.6778   0.00888   0.00352  -0.0872  0.2542  0.6128  -1.4112   0.0000   0.3727
   1.600   0.7022   0.00895   0.00359  -0.0876  0.2513  0.6199  -1.4450   0.0000   0.3685
   1.800   0.7270   0.00904   0.00368  -0.0880  0.2476  0.6278  -1.4794   0.0000   0.3646
   2.000   0.7507   0.00915   0.00377  -0.0883  0.2435  0.6344  -1.5133   0.0000   0.3609
   2.200   0.7758   0.00922   0.00385  -0.0888  0.2415  0.6418  -1.5501   0.0000   0.3575
   2.400   0.7999   0.00930   0.00394  -0.0891  0.2390  0.6487  -1.5861   0.0000   0.3542
   2.600   0.8249   0.00940   0.00404  -0.0896  0.2356  0.6564  -1.6231   0.0000   0.3512
   2.800   0.8483   0.00952   0.00414  -0.0898  0.2318  0.6633  -1.6594   0.0000   0.3482
   3.000   0.8735   0.00961   0.00425  -0.0904  0.2291  0.6711  -1.6988   0.0000   0.3455
   3.200   0.8974   0.00970   0.00435  -0.0907  0.2270  0.6781  -1.7373   0.0000   0.3428
   3.400   0.9226   0.00981   0.00446  -0.0912  0.2240  0.6862  -1.7784   0.0000   0.3404
   3.600   0.9460   0.00993   0.00458  -0.0914  0.2206  0.6932  -1.8189   0.0000   0.3380
   3.800   0.9705   0.01006   0.00470  -0.0919  0.2172  0.7004  -1.8606   0.0000   0.3357
   4.000   0.9939   0.01017   0.00482  -0.0921  0.2154  0.7069  -1.9015   0.0000   0.3334
   4.200   1.0188   0.01027   0.00494  -0.0926  0.2136  0.7136  -1.9442   0.0000   0.3314
   4.400   1.0422   0.01039   0.00506  -0.0928  0.2111  0.7204  -1.9857   0.0000   0.3293
   4.600   1.0661   0.01054   0.00521  -0.0931  0.2079  0.7268  -2.0278   0.0000   0.3274
   4.800   1.0891   0.01070   0.00536  -0.0933  0.2040  0.7337  -2.0692   0.0000   0.3254
   5.000   1.1127   0.01082   0.00549  -0.0935  0.2021  0.7396  -2.1125   0.0000   0.3236
   5.200   1.1367   0.01095   0.00564  -0.0939  0.1999  0.7466  -2.1576   0.0000   0.3218
   5.400   1.1593   0.01110   0.00579  -0.0939  0.1970  0.7529  -2.2016   0.0000   0.3200
   5.600   1.1825   0.01129   0.00597  -0.0942  0.1932  0.7595  -2.2463   0.0000   0.3183
   5.800   1.2044   0.01145   0.00613  -0.0941  0.1902  0.7653  -2.2907   0.0000   0.3166
   6.000   1.2274   0.01160   0.00629  -0.0943  0.1881  0.7704  -2.3382   0.0000   0.3149
   6.200   1.2497   0.01176   0.00646  -0.0943  0.1854  0.7760  -2.3873   0.0000   0.3133
   6.400   1.2708   0.01194   0.00664  -0.0941  0.1826  0.7811  -2.4353   0.0000   0.3116
   6.600   1.2924   0.01215   0.00685  -0.0940  0.1789  0.7865  -2.4843   0.0000   0.3100
   6.800   1.3137   0.01233   0.00703  -0.0938  0.1766  0.7918  -2.5332   0.0000   0.3085
   7.200   1.3544   0.01273   0.00744  -0.0932  0.1707  0.8010  -2.6340   0.0000   0.3052
   7.400   1.3738   0.01298   0.00767  -0.0927  0.1670  0.8061  -2.6863   0.0000   0.3036
   7.600   1.3937   0.01317   0.00788  -0.0923  0.1650  0.8103  -2.7396   0.0000   0.3021
   7.800   1.4138   0.01336   0.00808  -0.0919  0.1632  0.8142  -2.7936   0.0000   0.3006
   8.000   1.4330   0.01359   0.00832  -0.0914  0.1603  0.8182  -2.8466   0.0000   0.2990
   8.200   1.4509   0.01388   0.00858  -0.0907  0.1562  0.8223  -2.8981   0.0000   0.2974
   8.400   1.4696   0.01413   0.00883  -0.0901  0.1530  0.8259  -2.9549   0.0000   0.2959
   8.600   1.4883   0.01434   0.00907  -0.0895  0.1512  0.8299  -3.0137   0.0000   0.2944
   8.800   1.5062   0.01460   0.00933  -0.0888  0.1484  0.8337  -3.0715   0.0000   0.2929
   9.000   1.5221   0.01493   0.00965  -0.0878  0.1443  0.8370  -3.1277   0.0000   0.2913
   9.200   1.5389   0.01524   0.00995  -0.0869  0.1409  0.8397  -3.1900   0.0000   0.2898
   9.400   1.5550   0.01551   0.01024  -0.0859  0.1383  0.8426  -3.2515   0.0000   0.2882
   9.600   1.5702   0.01583   0.01056  -0.0848  0.1352  0.8456  -3.3119   0.0000   0.2866
   9.800   1.5848   0.01622   0.01093  -0.0836  0.1311  0.8488  -3.3714   0.0000   0.2850
  10.000   1.6014   0.01653   0.01125  -0.0827  0.1287  0.8517  -3.4349   0.0000   0.2836
  10.200   1.6170   0.01690   0.01162  -0.0817  0.1255  0.8541  -3.5038   0.0000   0.2822
  10.400   1.6287   0.01734   0.01205  -0.0801  0.1217  0.8566  -3.5673   0.0000   0.2804
  10.600   1.6412   0.01772   0.01244  -0.0786  0.1186  0.8593  -3.6328   0.0000   0.2788
  10.800   1.6550   0.01808   0.01282  -0.0773  0.1164  0.8619  -3.7014   0.0000   0.2773
  11.000   1.6679   0.01854   0.01328  -0.0760  0.1134  0.8644  -3.7724   0.0000   0.2757
  11.200   1.6799   0.01909   0.01381  -0.0746  0.1094  0.8665  -3.8434   0.0000   0.2742
  11.400   1.6942   0.01956   0.01429  -0.0736  0.1068  0.8682  -3.9202   0.0000   0.2729
  11.600   1.7049   0.02008   0.01482  -0.0720  0.1036  0.8699  -3.9905   0.0000   0.2713
  11.800   1.7116   0.02070   0.01543  -0.0698  0.1002  0.8721  -4.0538   0.0000   0.2695
  12.000   1.7207   0.02124   0.01599  -0.0680  0.0977  0.8742  -4.1227   0.0000   0.2678
  12.200   1.7309   0.02180   0.01657  -0.0664  0.0955  0.8764  -4.1946   0.0000   0.2663
  12.400   1.7401   0.02252   0.01729  -0.0649  0.0923  0.8784  -4.2643   0.0000   0.2648
  12.600   1.7490   0.02333   0.01810  -0.0634  0.0887  0.8801  -4.3336   0.0000   0.2634
  12.800   1.7610   0.02402   0.01880  -0.0624  0.0868  0.8815  -4.4108   0.0000   0.2622
  13.000   1.7721   0.02481   0.01960  -0.0614  0.0844  0.8827  -4.4920   0.0000   0.2610
  13.200   1.7744   0.02567   0.02048  -0.0590  0.0818  0.8845  -4.5506   0.0000   0.2592
  13.400   1.7772   0.02657   0.02139  -0.0568  0.0792  0.8862  -4.6110   0.0000   0.2575
  13.600   1.7825   0.02742   0.02228  -0.0550  0.0774  0.8878  -4.6804   0.0000   0.2560
  13.800   1.7870   0.02846   0.02333  -0.0534  0.0747  0.8892  -4.7477   0.0000   0.2545
  14.000   1.7904   0.02972   0.02459  -0.0518  0.0718  0.8905  -4.8116   0.0000   0.2532
  14.200   1.7972   0.03081   0.02570  -0.0507  0.0699  0.8918  -4.8856   0.0000   0.2520
  14.400   1.8041   0.03196   0.02688  -0.0498  0.0681  0.8930  -4.9599   0.0000   0.2509
  14.600   1.8092   0.03332   0.02826  -0.0488  0.0660  0.8941  -5.0294   0.0000   0.2499
  14.800   1.8125   0.03490   0.02986  -0.0479  0.0636  0.8951  -5.0932   0.0000   0.2489
  15.000   1.8188   0.03634   0.03132  -0.0474  0.0619  0.8959  -5.1660   0.0000   0.2480
  15.200   1.8205   0.03780   0.03282  -0.0462  0.0604  0.8969  -5.2260   0.0000   0.2468
  15.400   1.8177   0.03942   0.03448  -0.0446  0.0587  0.8980  -5.2726   0.0000   0.2455
  15.600   1.8133   0.04129   0.03638  -0.0431  0.0569  0.8990  -5.3138   0.0000   0.2443
  15.800   1.8103   0.04317   0.03831  -0.0419  0.0553  0.8999  -5.3588   0.0000   0.2432
  16.000   1.8103   0.04497   0.04015  -0.0411  0.0544  0.9008  -5.4124   0.0000   0.2422
  16.200   1.8093   0.04696   0.04219  -0.0405  0.0532  0.9016  -5.4628   0.0000   0.2414
  16.400   1.8068   0.04919   0.04446  -0.0401  0.0519  0.9023  -5.5102   0.0000   0.2407
  16.600   1.8025   0.05169   0.04700  -0.0398  0.0506  0.9031  -5.5530   0.0000   0.2400
  16.800   1.7972   0.05441   0.04977  -0.0397  0.0492  0.9037  -5.5915   0.0000   0.2395
  17.000   1.7940   0.05699   0.05241  -0.0397  0.0483  0.9043  -5.6371   0.0000   0.2390
  17.200   1.7903   0.05970   0.05518  -0.0400  0.0474  0.9049  -5.6803   0.0000   0.2386
  17.400   1.7846   0.06270   0.05823  -0.0404  0.0463  0.9054  -5.7157   0.0000   0.2384
  17.600   1.7763   0.06610   0.06169  -0.0410  0.0451  0.9058  -5.7411   0.0000   0.2382
  17.800   1.7649   0.06995   0.06560  -0.0418  0.0439  0.9062  -5.7543   0.0000   0.2383
  18.200   1.7449   0.07753   0.07332  -0.0438  0.0420  0.9069  -5.7871   0.0000   0.2385
  18.400   1.7342   0.08148   0.07734  -0.0451  0.0413  0.9071  -5.7998   0.0000   0.2388
  18.600   1.7226   0.08562   0.08155  -0.0464  0.0405  0.9073  -5.8084   0.0000   0.2391
  18.800   1.7099   0.08995   0.08595  -0.0480  0.0398  0.9075  -5.8130   0.0000   0.2396
  19.000   1.6947   0.09463   0.09071  -0.0498  0.0391  0.9077  -5.8062   0.0000   0.2403
  19.200   1.6788   0.09946   0.09562  -0.0518  0.0383  0.9078  -5.7946   0.0000   0.2412
  19.400   1.6642   0.10419   0.10042  -0.0538  0.0376  0.9080  -5.7860   0.0000   0.2421
  19.600   1.6524   0.10858   0.10488  -0.0559  0.0370  0.9082  -5.7879   0.0000   0.2429
  19.800   1.6417   0.11283   0.10920  -0.0580  0.0366  0.9083  -5.7931   0.0000   0.2438
  20.000   1.6310   0.11710   0.11354  -0.0602  0.0361  0.9085  -5.7966   0.0000   0.2448
  20.200   1.6209   0.12133   0.11783  -0.0625  0.0355  0.9087  -5.8007   0.0000   0.2458
  20.400   1.6115   0.12548   0.12204  -0.0649  0.0348  0.9089  -5.8066   0.0000   0.2469
  20.600   1.6003   0.12994   0.12656  -0.0676  0.0341  0.9090  -5.8022   0.0000   0.2482
  20.800   1.5873   0.13425   0.13093  -0.0699  0.0334  0.9093  -5.7898   0.0000   0.2494
  21.000   1.5760   0.13827   0.13500  -0.0722  0.0326  0.9096  -5.7841   0.0000   0.2505
  21.200   1.5684   0.14170   0.13848  -0.0741  0.0321  0.9099  -5.7947   0.0000   0.2513
  21.400   1.5595   0.14533   0.14217  -0.0762  0.0316  0.9102  -5.7977   0.0000   0.2523
  21.600   1.5535   0.14842   0.14529  -0.0780  0.0310  0.9106  -5.8149   0.0000   0.2530
  21.800   1.5442   0.15206   0.14900  -0.0802  0.0304  0.9110  -5.8136   0.0000   0.2541
  22.000   1.5381   0.15524   0.15221  -0.0822  0.0298  0.9113  -5.8275   0.0000   0.2550
  22.200   1.5290   0.15900   0.15602  -0.0847  0.0291  0.9117  -5.8235   0.0000   0.2563
  22.400   1.5237   0.16214   0.15918  -0.0868  0.0284  0.9120  -5.8384   0.0000   0.2572
  22.600   1.5174   0.16549   0.16258  -0.0892  0.0279  0.9123  -5.8463   0.0000   0.2584
  22.800   1.5147   0.16827   0.16540  -0.0912  0.0275  0.9126  -5.8728   0.0000   0.2591
  23.000   1.5128   0.17089   0.16805  -0.0931  0.0270  0.9129  -5.9038   0.0000   0.2598
  23.200   1.5067   0.17428   0.17149  -0.0957  0.0265  0.9132  -5.9100   0.0000   0.2611
  23.400   1.5043   0.17703   0.17426  -0.0978  0.0259  0.9136  -5.9378   0.0000   0.2620
  23.600   1.5005   0.18003   0.17730  -0.1002  0.0254  0.9139  -5.9563   0.0000   0.2631
  23.800   1.4952   0.18335   0.18066  -0.1029  0.0249  0.9142  -5.9634   0.0000   0.2645
  24.000   1.4933   0.18603   0.18336  -0.1051  0.0243  0.9145  -5.9913   0.0000   0.2653
  24.200   1.4903   0.18893   0.18631  -0.1075  0.0240  0.9149  -6.0111   0.0000   0.2664
  24.400   1.4885   0.19164   0.18905  -0.1098  0.0236  0.9153  -6.0374   0.0000   0.2674
  24.600   1.4889   0.19398   0.19142  -0.1119  0.0232  0.9157  -6.0771   0.0000   0.2680
  24.800   1.4879   0.19662   0.19409  -0.1143  0.0227  0.9161  -6.1068   0.0000   0.2690
  25.000   1.4840   0.19986   0.19737  -0.1172  0.0223  0.9165  -6.1144   0.0000   0.2705


