xflr5 v6.47

 Calculated polar for: NACA24018_theta30_Ku4.5_Kl0.5_d0.10_delta2.45

 1 1 Reynolds number fixed          Mach number fixed         

 xtrf =   1.000 (top)        1.000 (bottom)
 Mach =   0.000     Re =     0.600 e 6     Ncrit =   5.000

  alpha     CL        CD       CDp       Cm    Top Xtr Bot Xtr   Cpmin    Chinge    XCp    
 ------- -------- --------- --------- -------- ------- ------- -------- --------- ---------
 -15.000  -0.9737   0.03715   0.03160  -0.0807  0.9864  0.0318  -6.4069   0.0000   0.1427
 -14.800  -0.9642   0.03663   0.03103  -0.0805  0.9862  0.0321  -6.3113   0.0000   0.1425
 -14.600  -0.9690   0.03504   0.02941  -0.0774  0.9856  0.0323  -6.2651   0.0000   0.1467
 -14.400  -0.9637   0.03401   0.02834  -0.0761  0.9839  0.0325  -6.1833   0.0000   0.1480
 -14.200  -0.9534   0.03321   0.02751  -0.0760  0.9827  0.0329  -6.0857   0.0000   0.1476
 -13.800  -0.9396   0.03158   0.02584  -0.0739  0.9796  0.0336  -5.9100   0.0000   0.1494
 -13.400  -0.9099   0.03023   0.02444  -0.0741  0.9739  0.0345  -5.6796   0.0000   0.1472
 -13.200  -0.8904   0.02974   0.02392  -0.0749  0.9722  0.0351  -5.5502   0.0000   0.1447
 -13.000  -0.8754   0.02892   0.02306  -0.0747  0.9678  0.0356  -5.4370   0.0000   0.1437
 -12.800  -0.8570   0.02844   0.02254  -0.0752  0.9665  0.0361  -5.3137   0.0000   0.1415
 -12.600  -0.8457   0.02765   0.02171  -0.0742  0.9624  0.0365  -5.2142   0.0000   0.1418
 -12.400  -0.8289   0.02707   0.02111  -0.0743  0.9608  0.0370  -5.0979   0.0000   0.1401
 -12.200  -0.8193   0.02629   0.02032  -0.0731  0.9569  0.0374  -5.0041   0.0000   0.1409
 -12.000  -0.8033   0.02572   0.01974  -0.0729  0.9549  0.0380  -4.8914   0.0000   0.1396
 -11.800  -0.7917   0.02509   0.01910  -0.0718  0.9518  0.0385  -4.7959   0.0000   0.1400
 -11.600  -0.7788   0.02452   0.01850  -0.0709  0.9489  0.0391  -4.6972   0.0000   0.1399
 -11.400  -0.7617   0.02404   0.01800  -0.0706  0.9475  0.0398  -4.5869   0.0000   0.1384
 -11.200  -0.7573   0.02334   0.01727  -0.0680  0.9421  0.0403  -4.5148   0.0000   0.1417
 -11.000  -0.7397   0.02286   0.01675  -0.0678  0.9404  0.0410  -4.4048   0.0000   0.1401
 -10.800  -0.7330   0.02215   0.01602  -0.0655  0.9344  0.0415  -4.3269   0.0000   0.1427
 -10.600  -0.7249   0.02150   0.01538  -0.0635  0.9281  0.0421  -4.2448   0.0000   0.1448
 -10.400  -0.7077   0.02097   0.01485  -0.0631  0.9246  0.0428  -4.1372   0.0000   0.1435
 -10.200  -0.6973   0.02047   0.01433  -0.0613  0.9170  0.0435  -4.0497   0.0000   0.1450
 -10.000  -0.6806   0.02003   0.01388  -0.0607  0.9120  0.0443  -3.9452   0.0000   0.1439
  -9.800  -0.6603   0.01960   0.01343  -0.0606  0.9085  0.0451  -3.8321   0.0000   0.1413
  -9.600  -0.6376   0.01918   0.01299  -0.0610  0.9062  0.0460  -3.7137   0.0000   0.1376
  -9.400  -0.6193   0.01875   0.01257  -0.0606  0.9009  0.0469  -3.6103   0.0000   0.1355
  -9.200  -0.5974   0.01833   0.01216  -0.0607  0.8971  0.0480  -3.5005   0.0000   0.1316
  -9.000  -0.5730   0.01791   0.01174  -0.0613  0.8946  0.0494  -3.3855   0.0000   0.1262
  -8.800  -0.5525   0.01759   0.01140  -0.0612  0.8882  0.0506  -3.2818   0.0000   0.1225
  -8.600  -0.5274   0.01720   0.01100  -0.0619  0.8844  0.0519  -3.1681   0.0000   0.1158
  -8.400  -0.5018   0.01677   0.01058  -0.0627  0.8794  0.0533  -3.0543   0.0000   0.1081
  -8.200  -0.4743   0.01634   0.01015  -0.0638  0.8730  0.0551  -2.9371   0.0000   0.0983
  -8.000  -0.4427   0.01589   0.00967  -0.0656  0.8667  0.0570  -2.8169   0.0000   0.0843
  -7.800  -0.4091   0.01538   0.00915  -0.0678  0.8581  0.0590  -2.6950   0.0000   0.0660
  -7.600  -0.3725   0.01486   0.00862  -0.0707  0.8492  0.0614  -2.5684   0.0000   0.0414
  -7.400  -0.3342   0.01439   0.00811  -0.0738  0.8394  0.0639  -2.4405   0.0000   0.0093
  -7.200  -0.2970   0.01393   0.00763  -0.0768  0.8271  0.0669  -2.3169   0.0000  -0.0300
  -7.000  -0.2612   0.01356   0.00720  -0.0795  0.8119  0.0699  -2.1984   0.0000  -0.0774
  -6.800  -0.2283   0.01327   0.00684  -0.0816  0.7936  0.0728  -2.0878   0.0000  -0.1327
  -6.600  -0.1997   0.01305   0.00655  -0.0829  0.7737  0.0764  -1.9870   0.0000  -0.1928
  -6.400  -0.1741   0.01291   0.00633  -0.0836  0.7530  0.0796  -1.8939   0.0000  -0.2603
  -6.200  -0.1506   0.01278   0.00614  -0.0840  0.7321  0.0833  -1.8067   0.0000  -0.3409
  -6.000  -0.1285   0.01271   0.00598  -0.0840  0.7123  0.0870  -1.7272   0.0000  -0.4408
  -5.800  -0.1066   0.01263   0.00585  -0.0840  0.6941  0.0912  -1.6523   0.0000  -0.5806
  -5.600  -0.0849   0.01257   0.00574  -0.0840  0.6754  0.0962  -1.5786   0.0000  -0.7894
  -5.400  -0.0632   0.01252   0.00563  -0.0840  0.6565  0.1015  -1.5058   0.0000  -1.1425
  -5.200  -0.0415   0.01248   0.00554  -0.0839  0.6379  0.1075  -1.4356   0.0000  -1.8650
  -5.000  -0.0192   0.01243   0.00546  -0.0840  0.6208  0.1147  -1.3673   0.0000  -4.3126
  -4.800   0.0033   0.01240   0.00538  -0.0841  0.6045  0.1230  -1.2996   0.0000  26.6039
  -4.600   0.0262   0.01235   0.00532  -0.0844  0.5876  0.1338  -1.2323   0.0000   3.5947
  -4.400   0.0495   0.01231   0.00525  -0.0847  0.5705  0.1472  -1.1652   0.0000   2.0212
  -4.200   0.0735   0.01225   0.00520  -0.0852  0.5540  0.1639  -1.0981   0.0000   1.4461
  -4.000   0.0987   0.01217   0.00514  -0.0859  0.5386  0.1880  -1.0338   0.0000   1.1461
  -3.800   0.1269   0.01201   0.00509  -0.0875  0.5228  0.2323  -0.9665   0.0000   0.9570
  -3.600   0.1629   0.01170   0.00506  -0.0908  0.5053  0.3257  -0.8903   0.0000   0.8199
  -3.400   0.1964   0.01159   0.00509  -0.0934  0.4890  0.3880  -0.8181   0.0000   0.7347
  -3.000   0.2560   0.01161   0.00518  -0.0967  0.4618  0.4513  -0.8464   0.0000   0.6327
  -2.800   0.2856   0.01166   0.00525  -0.0982  0.4483  0.4778  -0.8759   0.0000   0.5976
  -2.400   0.3443   0.01181   0.00541  -0.1011  0.4219  0.5237  -0.9351   0.0000   0.5455
  -2.200   0.3726   0.01190   0.00549  -0.1024  0.4111  0.5414  -0.9643   0.0000   0.5256
  -2.000   0.4004   0.01201   0.00558  -0.1035  0.4007  0.5576  -0.9940   0.0000   0.5086
  -1.800   0.4287   0.01212   0.00569  -0.1047  0.3900  0.5746  -1.0248   0.0000   0.4937
  -1.600   0.4569   0.01224   0.00580  -0.1058  0.3805  0.5915  -1.0561   0.0000   0.4807
  -1.400   0.4850   0.01237   0.00593  -0.1070  0.3715  0.6086  -1.0887   0.0000   0.4691
  -1.200   0.5119   0.01248   0.00604  -0.1079  0.3642  0.6213  -1.1205   0.0000   0.4588
  -1.000   0.5367   0.01262   0.00614  -0.1083  0.3568  0.6295  -1.1510   0.0000   0.4495
  -0.800   0.5611   0.01274   0.00624  -0.1087  0.3502  0.6358  -1.1813   0.0000   0.4410
  -0.600   0.5854   0.01288   0.00636  -0.1090  0.3432  0.6427  -1.2117   0.0000   0.4332
  -0.400   0.6096   0.01302   0.00646  -0.1094  0.3373  0.6496  -1.2422   0.0000   0.4260
  -0.200   0.6336   0.01315   0.00659  -0.1097  0.3317  0.6562  -1.2730   0.0000   0.4193
   0.000   0.6573   0.01330   0.00672  -0.1099  0.3261  0.6629  -1.3049   0.0000   0.4131
   0.200   0.6808   0.01344   0.00684  -0.1101  0.3213  0.6689  -1.3368   0.0000   0.4073
   0.400   0.7044   0.01358   0.00698  -0.1103  0.3162  0.6756  -1.3690   0.0000   0.4019
   0.800   0.7503   0.01390   0.00727  -0.1105  0.3077  0.6882  -1.4327   0.0000   0.3919
   1.000   0.7737   0.01404   0.00741  -0.1106  0.3039  0.6946  -1.4651   0.0000   0.3874
   1.200   0.7964   0.01419   0.00757  -0.1107  0.2998  0.7006  -1.4985   0.0000   0.3831
   1.400   0.8178   0.01437   0.00773  -0.1104  0.2956  0.7066  -1.5314   0.0000   0.3789
   1.600   0.8408   0.01454   0.00790  -0.1105  0.2919  0.7128  -1.5672   0.0000   0.3751
   1.800   0.8622   0.01469   0.00806  -0.1103  0.2885  0.7183  -1.6018   0.0000   0.3713
   2.000   0.8834   0.01485   0.00823  -0.1101  0.2851  0.7241  -1.6364   0.0000   0.3677
   2.200   0.9059   0.01505   0.00841  -0.1101  0.2815  0.7299  -1.6724   0.0000   0.3643
   2.400   0.9251   0.01523   0.00860  -0.1094  0.2782  0.7350  -1.7055   0.0000   0.3609
   2.600   0.9457   0.01539   0.00877  -0.1091  0.2751  0.7405  -1.7401   0.0000   0.3576
   2.800   0.9683   0.01558   0.00896  -0.1091  0.2716  0.7460  -1.7766   0.0000   0.3547
   3.000   0.9865   0.01576   0.00915  -0.1083  0.2683  0.7507  -1.8093   0.0000   0.3515
   3.200   1.0045   0.01598   0.00937  -0.1074  0.2650  0.7556  -1.8433   0.0000   0.3485
   3.400   1.0257   0.01618   0.00957  -0.1072  0.2621  0.7606  -1.8809   0.0000   0.3458
   3.600   1.0455   0.01636   0.00978  -0.1067  0.2592  0.7651  -1.9190   0.0000   0.3430
   3.800   1.0614   0.01655   0.00999  -0.1054  0.2565  0.7693  -1.9532   0.0000   0.3400
   4.000   1.0798   0.01677   0.01021  -0.1047  0.2537  0.7738  -1.9901   0.0000   0.3374
   4.200   1.1009   0.01705   0.01047  -0.1045  0.2506  0.7783  -2.0301   0.0000   0.3351
   4.400   1.1169   0.01724   0.01069  -0.1033  0.2482  0.7820  -2.0649   0.0000   0.3324
   4.600   1.1317   0.01742   0.01090  -0.1018  0.2455  0.7859  -2.0985   0.0000   0.3296
   4.800   1.1493   0.01764   0.01114  -0.1010  0.2425  0.7900  -2.1352   0.0000   0.3272
   5.000   1.1703   0.01792   0.01141  -0.1008  0.2394  0.7940  -2.1767   0.0000   0.3252
   5.200   1.1852   0.01819   0.01168  -0.0995  0.2365  0.7974  -2.2144   0.0000   0.3227
   5.400   1.1968   0.01839   0.01191  -0.0974  0.2343  0.8006  -2.2484   0.0000   0.3199
   5.600   1.2117   0.01862   0.01217  -0.0961  0.2318  0.8039  -2.2864   0.0000   0.3175
   5.800   1.2302   0.01889   0.01246  -0.0954  0.2292  0.8073  -2.3287   0.0000   0.3155
   6.000   1.2522   0.01923   0.01279  -0.0956  0.2263  0.8108  -2.3755   0.0000   0.3139
   6.200   1.2622   0.01950   0.01308  -0.0933  0.2238  0.8135  -2.4080   0.0000   0.3113
   6.400   1.2707   0.01977   0.01337  -0.0908  0.2215  0.8162  -2.4390   0.0000   0.3085
   6.600   1.2847   0.02001   0.01365  -0.0893  0.2190  0.8190  -2.4784   0.0000   0.3063
   6.800   1.3011   0.02032   0.01398  -0.0884  0.2162  0.8219  -2.5212   0.0000   0.3044
   7.000   1.3203   0.02069   0.01435  -0.0880  0.2131  0.8249  -2.5686   0.0000   0.3028
   7.200   1.3396   0.02111   0.01477  -0.0878  0.2102  0.8275  -2.6186   0.0000   0.3013
   7.400   1.3439   0.02142   0.01510  -0.0846  0.2082  0.8295  -2.6495   0.0000   0.2985
   7.600   1.3533   0.02169   0.01541  -0.0823  0.2064  0.8315  -2.6873   0.0000   0.2961
   7.800   1.3643   0.02200   0.01577  -0.0804  0.2041  0.8336  -2.7276   0.0000   0.2939
   8.000   1.3768   0.02238   0.01617  -0.0789  0.2015  0.8360  -2.7700   0.0000   0.2919
   8.200   1.3916   0.02282   0.01662  -0.0779  0.1986  0.8384  -2.8158   0.0000   0.2902
   8.400   1.4093   0.02336   0.01715  -0.0775  0.1956  0.8407  -2.8665   0.0000   0.2889
   8.600   1.4288   0.02380   0.01763  -0.0774  0.1930  0.8429  -2.9241   0.0000   0.2878
   8.800   1.4338   0.02417   0.01804  -0.0746  0.1908  0.8442  -2.9601   0.0000   0.2853
   9.000   1.4395   0.02458   0.01848  -0.0719  0.1884  0.8457  -2.9971   0.0000   0.2829
   9.200   1.4454   0.02505   0.01898  -0.0694  0.1860  0.8474  -3.0360   0.0000   0.2806
   9.400   1.4527   0.02561   0.01955  -0.0673  0.1835  0.8491  -3.0800   0.0000   0.2786
   9.600   1.4630   0.02615   0.02012  -0.0657  0.1814  0.8508  -3.1305   0.0000   0.2768
   9.800   1.4765   0.02667   0.02069  -0.0647  0.1790  0.8527  -3.1867   0.0000   0.2754
  10.000   1.4918   0.02731   0.02135  -0.0642  0.1759  0.8547  -3.2465   0.0000   0.2742
  10.200   1.5100   0.02810   0.02214  -0.0643  0.1724  0.8567  -3.3141   0.0000   0.2734
  10.400   1.5173   0.02885   0.02291  -0.0626  0.1698  0.8581  -3.3621   0.0000   0.2717
  10.600   1.5207   0.02940   0.02351  -0.0600  0.1679  0.8591  -3.4032   0.0000   0.2695
  10.800   1.5246   0.03003   0.02419  -0.0575  0.1656  0.8602  -3.4462   0.0000   0.2675
  11.000   1.5289   0.03075   0.02495  -0.0553  0.1630  0.8613  -3.4909   0.0000   0.2655
  11.200   1.5331   0.03159   0.02581  -0.0533  0.1603  0.8625  -3.5391   0.0000   0.2637
  11.400   1.5371   0.03255   0.02678  -0.0515  0.1577  0.8638  -3.5869   0.0000   0.2620
  11.600   1.5457   0.03333   0.02762  -0.0502  0.1554  0.8652  -3.6457   0.0000   0.2606
  11.800   1.5547   0.03424   0.02857  -0.0492  0.1527  0.8667  -3.7066   0.0000   0.2594
  12.000   1.5640   0.03532   0.02969  -0.0485  0.1498  0.8682  -3.7681   0.0000   0.2583
  12.200   1.5738   0.03662   0.03100  -0.0481  0.1469  0.8697  -3.8307   0.0000   0.2575
  12.400   1.5898   0.03783   0.03225  -0.0487  0.1441  0.8713  -3.9083   0.0000   0.2571
  12.600   1.5932   0.03892   0.03339  -0.0472  0.1416  0.8722  -3.9597   0.0000   0.2557
  12.800   1.5927   0.04009   0.03461  -0.0452  0.1392  0.8729  -4.0035   0.0000   0.2540
  13.000   1.5912   0.04144   0.03599  -0.0433  0.1368  0.8737  -4.0444   0.0000   0.2524
  13.200   1.5896   0.04289   0.03748  -0.0416  0.1345  0.8746  -4.0862   0.0000   0.2509
  13.400   1.5914   0.04417   0.03881  -0.0403  0.1322  0.8756  -4.1371   0.0000   0.2496
  13.600   1.5926   0.04566   0.04035  -0.0392  0.1296  0.8766  -4.1860   0.0000   0.2485
  13.800   1.5927   0.04740   0.04214  -0.0383  0.1269  0.8775  -4.2316   0.0000   0.2474
  14.000   1.5913   0.04941   0.04418  -0.0376  0.1244  0.8785  -4.2726   0.0000   0.2465
  14.200   1.5939   0.05114   0.04598  -0.0372  0.1222  0.8795  -4.3247   0.0000   0.2458
  14.400   1.5962   0.05304   0.04793  -0.0370  0.1196  0.8805  -4.3774   0.0000   0.2451
  14.600   1.5968   0.05525   0.05019  -0.0370  0.1169  0.8815  -4.4248   0.0000   0.2446
  14.800   1.5951   0.05784   0.05283  -0.0373  0.1145  0.8824  -4.4648   0.0000   0.2443
  15.000   1.5964   0.06027   0.05532  -0.0378  0.1122  0.8832  -4.5130   0.0000   0.2441
  15.200   1.5982   0.06279   0.05790  -0.0385  0.1097  0.8839  -4.5623   0.0000   0.2440
  15.400   1.5979   0.06571   0.06088  -0.0395  0.1070  0.8846  -4.6048   0.0000   0.2441
  15.600   1.5911   0.06884   0.06406  -0.0400  0.1049  0.8852  -4.6275   0.0000   0.2439
  15.800   1.5817   0.07170   0.06699  -0.0398  0.1031  0.8856  -4.6430   0.0000   0.2434
  16.000   1.5747   0.07436   0.06973  -0.0397  0.1013  0.8861  -4.6653   0.0000   0.2429
  16.200   1.5663   0.07733   0.07277  -0.0399  0.0992  0.8865  -4.6820   0.0000   0.2426
  16.400   1.5562   0.08066   0.07616  -0.0404  0.0971  0.8870  -4.6927   0.0000   0.2426
  16.600   1.5439   0.08441   0.07998  -0.0413  0.0952  0.8873  -4.6948   0.0000   0.2428
  16.800   1.5341   0.08789   0.08353  -0.0422  0.0935  0.8877  -4.7045   0.0000   0.2430
  17.000   1.5261   0.09119   0.08691  -0.0432  0.0916  0.8880  -4.7192   0.0000   0.2432
  17.200   1.5164   0.09478   0.09056  -0.0443  0.0897  0.8884  -4.7269   0.0000   0.2436
  17.400   1.5049   0.09864   0.09448  -0.0457  0.0878  0.8888  -4.7268   0.0000   0.2441
  17.600   1.4917   0.10277   0.09867  -0.0474  0.0860  0.8892  -4.7187   0.0000   0.2449
  17.800   1.4834   0.10622   0.10219  -0.0487  0.0844  0.8897  -4.7279   0.0000   0.2454
  18.000   1.4754   0.10969   0.10573  -0.0502  0.0826  0.8902  -4.7367   0.0000   0.2460
  18.200   1.4664   0.11336   0.10946  -0.0520  0.0807  0.8907  -4.7404   0.0000   0.2468
  18.400   1.4563   0.11725   0.11340  -0.0540  0.0788  0.8911  -4.7383   0.0000   0.2478
  18.600   1.4470   0.12110   0.11730  -0.0561  0.0771  0.8916  -4.7396   0.0000   0.2489
  18.800   1.4422   0.12437   0.12063  -0.0579  0.0754  0.8920  -4.7585   0.0000   0.2498
  19.000   1.4367   0.12779   0.12410  -0.0600  0.0735  0.8925  -4.7747   0.0000   0.2507
  19.200   1.4300   0.13141   0.12776  -0.0623  0.0717  0.8929  -4.7847   0.0000   0.2519
  19.400   1.4218   0.13531   0.13170  -0.0649  0.0700  0.8933  -4.7859   0.0000   0.2534
  19.600   1.4200   0.13829   0.13473  -0.0670  0.0684  0.8938  -4.8151   0.0000   0.2543
  19.800   1.4166   0.14157   0.13806  -0.0693  0.0667  0.8943  -4.8358   0.0000   0.2554
  20.000   1.4131   0.14490   0.14143  -0.0718  0.0649  0.8948  -4.8551   0.0000   0.2567
  20.200   1.4074   0.14867   0.14522  -0.0747  0.0632  0.8953  -4.8615   0.0000   0.2583
  20.400   1.4073   0.15167   0.14827  -0.0772  0.0616  0.8959  -4.8935   0.0000   0.2595
  20.600   1.4070   0.15483   0.15147  -0.0799  0.0599  0.8965  -4.9228   0.0000   0.2608
  20.800   1.4061   0.15817   0.15485  -0.0829  0.0582  0.8970  -4.9476   0.0000   0.2623
  21.000   1.4028   0.16148   0.15819  -0.0857  0.0567  0.8974  -4.9624   0.0000   0.2637
  21.200   1.3988   0.16419   0.16093  -0.0875  0.0555  0.8977  -4.9783   0.0000   0.2646
  21.400   1.3974   0.16653   0.16331  -0.0891  0.0541  0.8980  -5.0070   0.0000   0.2652
  21.600   1.3940   0.16924   0.16606  -0.0910  0.0528  0.8984  -5.0238   0.0000   0.2661
  21.800   1.3900   0.17211   0.16895  -0.0932  0.0514  0.8987  -5.0359   0.0000   0.2672
  22.000   1.3864   0.17494   0.17179  -0.0954  0.0501  0.8990  -5.0492   0.0000   0.2683
  22.200   1.3854   0.17733   0.17423  -0.0972  0.0490  0.8994  -5.0757   0.0000   0.2691
  22.400   1.3841   0.17972   0.17666  -0.0991  0.0478  0.8999  -5.1008   0.0000   0.2698
  22.600   1.3824   0.18220   0.17917  -0.1011  0.0465  0.9004  -5.1228   0.0000   0.2707
  22.800   1.3790   0.18506   0.18204  -0.1035  0.0454  0.9009  -5.1328   0.0000   0.2719
  23.000   1.3778   0.18760   0.18461  -0.1057  0.0443  0.9015  -5.1541   0.0000   0.2729
  23.200   1.3789   0.18984   0.18689  -0.1077  0.0432  0.9020  -5.1879   0.0000   0.2736
  23.400   1.3788   0.19234   0.18943  -0.1100  0.0421  0.9024  -5.2131   0.0000   0.2746
  23.600   1.3774   0.19515   0.19226  -0.1126  0.0409  0.9028  -5.2286   0.0000   0.2760
  23.800   1.3766   0.19786   0.19497  -0.1152  0.0399  0.9032  -5.2472   0.0000   0.2772
  24.000   1.3787   0.20008   0.19724  -0.1175  0.0389  0.9037  -5.2829   0.0000   0.2780
  24.200   1.3792   0.20265   0.19985  -0.1200  0.0379  0.9041  -5.3064   0.0000   0.2791
  24.400   1.3800   0.20517   0.20239  -0.1226  0.0369  0.9045  -5.3326   0.0000   0.2802
  24.600   1.3809   0.20769   0.20493  -0.1253  0.0360  0.9049  -5.3603   0.0000   0.2814
  24.800   1.3812   0.21036   0.20761  -0.1281  0.0351  0.9053  -5.3825   0.0000   0.2827
  25.000   1.3835   0.21270   0.21000  -0.1307  0.0343  0.9057  -5.4167   0.0000   0.2836


