xflr5 v6.47

 Calculated polar for: NACA24018_theta30_Ku4.5_Kl0.5_d0.10_delta2.45

 1 1 Reynolds number fixed          Mach number fixed         

 xtrf =   1.000 (top)        1.000 (bottom)
 Mach =   0.000     Re =     3.200 e 6     Ncrit =   5.000

  alpha     CL        CD       CDp       Cm    Top Xtr Bot Xtr   Cpmin    Chinge    XCp    
 ------- -------- --------- --------- -------- ------- ------- -------- --------- ---------
 -15.000  -1.0512   0.02183   0.01734  -0.0897  0.9549  0.0225  -6.9079   0.0000   0.1417
 -14.600  -1.0231   0.02059   0.01608  -0.0883  0.9503  0.0232  -6.6595   0.0000   0.1413
 -14.400  -1.0043   0.02008   0.01556  -0.0884  0.9493  0.0236  -6.5196   0.0000   0.1399
 -14.200  -0.9841   0.01962   0.01509  -0.0887  0.9487  0.0239  -6.3754   0.0000   0.1380
 -14.000  -0.9632   0.01917   0.01464  -0.0891  0.9482  0.0243  -6.2301   0.0000   0.1358
 -13.800  -0.9414   0.01876   0.01423  -0.0897  0.9478  0.0247  -6.0825   0.0000   0.1333
 -13.600  -0.9479   0.01825   0.01369  -0.0849  0.9444  0.0248  -6.0333   0.0000   0.1395
 -13.400  -0.9416   0.01784   0.01327  -0.0825  0.9428  0.0250  -5.9403   0.0000   0.1419
 -13.200  -0.9245   0.01744   0.01287  -0.0820  0.9420  0.0253  -5.8110   0.0000   0.1410
 -13.000  -0.9038   0.01704   0.01246  -0.0822  0.9415  0.0257  -5.6714   0.0000   0.1390
 -12.800  -0.8821   0.01665   0.01207  -0.0825  0.9410  0.0262  -5.5293   0.0000   0.1365
 -12.600  -0.8595   0.01626   0.01169  -0.0830  0.9407  0.0267  -5.3856   0.0000   0.1337
 -12.400  -0.8360   0.01590   0.01133  -0.0836  0.9403  0.0272  -5.2406   0.0000   0.1304
 -11.600  -0.8177   0.01510   0.01051  -0.0714  0.9120  0.0283  -4.9153   0.0000   0.1445
 -11.000  -0.7319   0.01403   0.00945  -0.0755  0.9013  0.0299  -4.4683   0.0000   0.1287
 -10.800  -0.6949   0.01352   0.00894  -0.0784  0.8969  0.0308  -4.2991   0.0000   0.1188
 -10.600  -0.6465   0.01285   0.00825  -0.0836  0.8885  0.0316  -4.1004   0.0000   0.1020
 -10.400  -0.5907   0.01204   0.00730  -0.0902  0.8519  0.0323  -3.8857   0.0000   0.0778
 -10.200  -0.5782   0.01193   0.00701  -0.0884  0.8031  0.0326  -3.7914   0.0000   0.0778
 -10.000  -0.5632   0.01184   0.00679  -0.0872  0.7652  0.0333  -3.6920   0.0000   0.0761
  -9.800  -0.5442   0.01171   0.00658  -0.0867  0.7372  0.0341  -3.5872   0.0000   0.0716
  -9.600  -0.5230   0.01158   0.00639  -0.0866  0.7176  0.0350  -3.4772   0.0000   0.0652
  -9.400  -0.5009   0.01146   0.00622  -0.0867  0.7001  0.0357  -3.3665   0.0000   0.0576
  -9.200  -0.4784   0.01135   0.00606  -0.0869  0.6814  0.0363  -3.2561   0.0000   0.0490
  -9.000  -0.4554   0.01125   0.00590  -0.0871  0.6629  0.0370  -3.1459   0.0000   0.0391
  -8.800  -0.4318   0.01114   0.00574  -0.0875  0.6454  0.0381  -3.0356   0.0000   0.0275
  -8.600  -0.4078   0.01103   0.00559  -0.0879  0.6280  0.0392  -2.9295   0.0000   0.0141
  -8.400  -0.3835   0.01094   0.00545  -0.0884  0.6112  0.0401  -2.8248   0.0000  -0.0013
  -8.000  -0.3340   0.01077   0.00521  -0.0895  0.5827  0.0420  -2.6177   0.0000  -0.0399
  -7.800  -0.3086   0.01068   0.00508  -0.0901  0.5671  0.0434  -2.5148   0.0000  -0.0650
  -7.600  -0.2830   0.01061   0.00496  -0.0909  0.5511  0.0447  -2.4126   0.0000  -0.0950
  -7.400  -0.2574   0.01054   0.00485  -0.0915  0.5366  0.0458  -2.3120   0.0000  -0.1308
  -7.200  -0.2319   0.01047   0.00475  -0.0922  0.5246  0.0476  -2.2130   0.0000  -0.1744
  -7.000  -0.2065   0.01041   0.00466  -0.0929  0.5115  0.0497  -2.1156   0.0000  -0.2284
  -6.800  -0.1814   0.01037   0.00458  -0.0935  0.4967  0.0513  -2.0202   0.0000  -0.2963
  -6.600  -0.1561   0.01033   0.00451  -0.0941  0.4821  0.0532  -1.9258   0.0000  -0.3872
  -6.400  -0.1308   0.01029   0.00444  -0.0947  0.4685  0.0553  -1.8326   0.0000  -0.5139
  -6.200  -0.1056   0.01027   0.00438  -0.0953  0.4562  0.0571  -1.7420   0.0000  -0.6994
  -6.000  -0.0801   0.01024   0.00432  -0.0960  0.4431  0.0597  -1.6600   0.0000  -1.0056
  -5.800  -0.0548   0.01022   0.00427  -0.0966  0.4302  0.0621  -1.5791   0.0000  -1.5946
  -5.400  -0.0040   0.01018   0.00419  -0.0978  0.4102  0.0672  -1.4247   0.0000  -25.1236
  -5.200   0.0214   0.01017   0.00416  -0.0984  0.4008  0.0703  -1.3510   0.0000   5.0240
  -5.000   0.0470   0.01015   0.00413  -0.0991  0.3906  0.0741  -1.2782   0.0000   2.4335
  -4.800   0.0725   0.01015   0.00411  -0.0997  0.3807  0.0777  -1.2066   0.0000   1.6711
  -4.600   0.0977   0.01016   0.00409  -0.1003  0.3701  0.0810  -1.1363   0.0000   1.3071
  -4.400   0.1235   0.01015   0.00407  -0.1010  0.3618  0.0856  -1.0665   0.0000   1.0904
  -4.200   0.1491   0.01015   0.00406  -0.1016  0.3537  0.0908  -1.0012   0.0000   0.9488
  -4.000   0.1750   0.01015   0.00406  -0.1023  0.3458  0.0968  -0.9367   0.0000   0.8482
  -3.800   0.2009   0.01016   0.00406  -0.1030  0.3378  0.1032  -0.8732   0.0000   0.7735
  -3.600   0.2271   0.01015   0.00407  -0.1038  0.3314  0.1122  -0.8102   0.0000   0.7155
  -3.400   0.2535   0.01016   0.00408  -0.1046  0.3248  0.1222  -0.8264   0.0000   0.6694
  -3.200   0.2799   0.01015   0.00409  -0.1054  0.3211  0.1319  -0.8538   0.0000   0.6318
  -3.000   0.3067   0.01015   0.00411  -0.1063  0.3160  0.1441  -0.8816   0.0000   0.6007
  -2.600   0.3631   0.01014   0.00417  -0.1087  0.3050  0.1845  -0.9395   0.0000   0.5516
  -2.400   0.3939   0.01011   0.00422  -0.1105  0.2994  0.2187  -0.9705   0.0000   0.5319
  -2.200   0.4276   0.01007   0.00428  -0.1130  0.2934  0.2638  -1.0036   0.0000   0.5147
  -2.000   0.4653   0.01000   0.00437  -0.1162  0.2895  0.3228  -1.0411   0.0000   0.4997
  -1.800   0.5009   0.00999   0.00447  -0.1190  0.2850  0.3699  -1.0788   0.0000   0.4870
  -1.600   0.5341   0.01001   0.00456  -0.1213  0.2803  0.4069  -1.1155   0.0000   0.4760
  -1.400   0.5657   0.01004   0.00466  -0.1232  0.2776  0.4352  -1.1513   0.0000   0.4662
  -1.000   0.6244   0.01015   0.00484  -0.1259  0.2711  0.4757  -1.2201   0.0000   0.4494
  -0.800   0.6539   0.01023   0.00495  -0.1274  0.2661  0.4967  -1.2550   0.0000   0.4421
  -0.600   0.6832   0.01030   0.00505  -0.1288  0.2630  0.5168  -1.2900   0.0000   0.4355
  -0.400   0.7122   0.01037   0.00516  -0.1301  0.2607  0.5353  -1.3261   0.0000   0.4293
  -0.200   0.7400   0.01046   0.00526  -0.1311  0.2577  0.5483  -1.3620   0.0000   0.4235
   0.000   0.7650   0.01056   0.00535  -0.1316  0.2540  0.5543  -1.3957   0.0000   0.4181
   0.200   0.7905   0.01066   0.00544  -0.1321  0.2496  0.5607  -1.4300   0.0000   0.4129
   0.400   0.8152   0.01075   0.00552  -0.1325  0.2474  0.5666  -1.4639   0.0000   0.4081
   0.600   0.8407   0.01084   0.00562  -0.1331  0.2443  0.5731  -1.4987   0.0000   0.4035
   0.800   0.8656   0.01096   0.00572  -0.1336  0.2405  0.5797  -1.5331   0.0000   0.3992
   1.200   0.9152   0.01117   0.00592  -0.1344  0.2346  0.5909  -1.6083   0.0000   0.3912
   1.400   0.9400   0.01127   0.00603  -0.1348  0.2328  0.5974  -1.6467   0.0000   0.3875
   1.600   0.9646   0.01138   0.00613  -0.1352  0.2305  0.6032  -1.6851   0.0000   0.3840
   1.800   0.9898   0.01150   0.00625  -0.1357  0.2273  0.6099  -1.7242   0.0000   0.3807
   2.000   1.0134   0.01164   0.00637  -0.1359  0.2233  0.6153  -1.7619   0.0000   0.3774
   2.200   1.0382   0.01176   0.00650  -0.1364  0.2207  0.6210  -1.8012   0.0000   0.3744
   2.400   1.0631   0.01188   0.00662  -0.1368  0.2182  0.6278  -1.8407   0.0000   0.3715
   2.800   1.1115   0.01217   0.00690  -0.1375  0.2115  0.6397  -1.9202   0.0000   0.3659
   3.000   1.1353   0.01232   0.00704  -0.1377  0.2083  0.6459  -1.9631   0.0000   0.3633
   3.200   1.1591   0.01244   0.00717  -0.1379  0.2070  0.6513  -2.0063   0.0000   0.3607
   3.400   1.1840   0.01258   0.00732  -0.1384  0.2052  0.6578  -2.0509   0.0000   0.3583
   3.600   1.2071   0.01274   0.00747  -0.1385  0.2022  0.6637  -2.0938   0.0000   0.3559
   3.800   1.2304   0.01293   0.00765  -0.1387  0.1978  0.6692  -2.1371   0.0000   0.3536
   4.000   1.2543   0.01310   0.00782  -0.1389  0.1944  0.6754  -2.1813   0.0000   0.3514
   4.200   1.2768   0.01326   0.00798  -0.1389  0.1923  0.6809  -2.2244   0.0000   0.3491
   4.400   1.3008   0.01343   0.00816  -0.1392  0.1900  0.6865  -2.2708   0.0000   0.3471
   4.600   1.3239   0.01362   0.00834  -0.1393  0.1873  0.6925  -2.3191   0.0000   0.3450
   4.800   1.3454   0.01383   0.00853  -0.1391  0.1839  0.6976  -2.3658   0.0000   0.3429
   5.000   1.3690   0.01401   0.00873  -0.1393  0.1816  0.7030  -2.4154   0.0000   0.3410
   5.200   1.3918   0.01420   0.00892  -0.1394  0.1793  0.7085  -2.4643   0.0000   0.3391
   5.400   1.4130   0.01441   0.00912  -0.1391  0.1761  0.7133  -2.5115   0.0000   0.3371
   5.600   1.4347   0.01466   0.00936  -0.1390  0.1720  0.7180  -2.5595   0.0000   0.3352
   5.800   1.4570   0.01488   0.00958  -0.1390  0.1690  0.7230  -2.6104   0.0000   0.3334
   6.000   1.4782   0.01508   0.00978  -0.1388  0.1668  0.7276  -2.6606   0.0000   0.3316
   6.200   1.4986   0.01530   0.01000  -0.1384  0.1642  0.7314  -2.7141   0.0000   0.3298
   6.400   1.5205   0.01556   0.01025  -0.1383  0.1612  0.7361  -2.7705   0.0000   0.3281
   6.600   1.5413   0.01582   0.01051  -0.1380  0.1576  0.7410  -2.8256   0.0000   0.3264
   6.800   1.5616   0.01604   0.01074  -0.1376  0.1555  0.7452  -2.8806   0.0000   0.3246
   7.000   1.5816   0.01631   0.01100  -0.1372  0.1521  0.7489  -2.9353   0.0000   0.3229
   7.200   1.6017   0.01664   0.01131  -0.1368  0.1480  0.7534  -2.9906   0.0000   0.3213
   7.400   1.6215   0.01691   0.01158  -0.1363  0.1449  0.7575  -3.0486   0.0000   0.3196
   7.600   1.6400   0.01720   0.01187  -0.1356  0.1415  0.7608  -3.1070   0.0000   0.3179
   7.800   1.6563   0.01756   0.01220  -0.1346  0.1372  0.7634  -3.1622   0.0000   0.3161
   8.000   1.6752   0.01790   0.01254  -0.1340  0.1341  0.7672  -3.2280   0.0000   0.3145
   8.200   1.6940   0.01821   0.01286  -0.1334  0.1318  0.7713  -3.2957   0.0000   0.3129
   8.400   1.7112   0.01857   0.01322  -0.1325  0.1287  0.7750  -3.3609   0.0000   0.3113
   8.600   1.7270   0.01897   0.01360  -0.1313  0.1247  0.7780  -3.4257   0.0000   0.3096
   8.800   1.7445   0.01929   0.01393  -0.1305  0.1226  0.7805  -3.4950   0.0000   0.3080
   9.000   1.7618   0.01968   0.01432  -0.1297  0.1192  0.7836  -3.5642   0.0000   0.3064
   9.200   1.7764   0.02019   0.01480  -0.1284  0.1139  0.7866  -3.6294   0.0000   0.3048
   9.400   1.7922   0.02060   0.01521  -0.1273  0.1111  0.7898  -3.7025   0.0000   0.3032
   9.600   1.8058   0.02109   0.01570  -0.1259  0.1076  0.7925  -3.7746   0.0000   0.3015
   9.800   1.8189   0.02161   0.01621  -0.1244  0.1038  0.7947  -3.8480   0.0000   0.2998
  10.000   1.8343   0.02204   0.01664  -0.1233  0.1017  0.7971  -3.9270   0.0000   0.2983
  10.200   1.8486   0.02255   0.01716  -0.1221  0.0985  0.7998  -4.0040   0.0000   0.2967
  10.400   1.8605   0.02317   0.01776  -0.1205  0.0946  0.8024  -4.0765   0.0000   0.2950
  10.600   1.8734   0.02371   0.01831  -0.1190  0.0922  0.8048  -4.1525   0.0000   0.2934
  10.800   1.8845   0.02436   0.01895  -0.1174  0.0887  0.8070  -4.2301   0.0000   0.2918
  11.000   1.8957   0.02502   0.01961  -0.1157  0.0852  0.8089  -4.3102   0.0000   0.2902
  11.200   1.9073   0.02564   0.02024  -0.1142  0.0829  0.8107  -4.3920   0.0000   0.2886
  11.400   1.9165   0.02642   0.02101  -0.1123  0.0796  0.8126  -4.4681   0.0000   0.2870
  11.600   1.9268   0.02715   0.02175  -0.1107  0.0767  0.8150  -4.5487   0.0000   0.2854
  11.800   1.9366   0.02789   0.02250  -0.1090  0.0746  0.8172  -4.6304   0.0000   0.2838
  12.000   1.9450   0.02874   0.02336  -0.1072  0.0719  0.8192  -4.7084   0.0000   0.2823
  12.200   1.9528   0.02965   0.02428  -0.1054  0.0694  0.8211  -4.7851   0.0000   0.2807
  12.400   1.9618   0.03050   0.02515  -0.1038  0.0674  0.8229  -4.8657   0.0000   0.2792
  12.600   1.9684   0.03155   0.02620  -0.1019  0.0649  0.8245  -4.9401   0.0000   0.2777
  12.800   1.9744   0.03266   0.02732  -0.1001  0.0625  0.8259  -5.0131   0.0000   0.2762
  13.000   1.9825   0.03366   0.02834  -0.0986  0.0610  0.8271  -5.0922   0.0000   0.2748
  13.200   1.9883   0.03479   0.02949  -0.0969  0.0591  0.8289  -5.1652   0.0000   0.2733
  13.400   1.9918   0.03612   0.03084  -0.0951  0.0569  0.8306  -5.2329   0.0000   0.2719
  13.600   1.9969   0.03737   0.03212  -0.0935  0.0554  0.8321  -5.3067   0.0000   0.2705
  13.800   2.0015   0.03869   0.03347  -0.0919  0.0538  0.8337  -5.3793   0.0000   0.2691
  14.000   2.0039   0.04024   0.03504  -0.0903  0.0520  0.8351  -5.4455   0.0000   0.2678
  14.200   2.0056   0.04190   0.03673  -0.0888  0.0501  0.8366  -5.5097   0.0000   0.2666
  14.400   2.0095   0.04343   0.03829  -0.0876  0.0488  0.8380  -5.5833   0.0000   0.2654
  14.600   2.0111   0.04521   0.04010  -0.0863  0.0472  0.8392  -5.6544   0.0000   0.2642
  14.800   2.0102   0.04728   0.04220  -0.0851  0.0455  0.8403  -5.7169   0.0000   0.2631
  15.000   2.0112   0.04925   0.04420  -0.0841  0.0442  0.8413  -5.7858   0.0000   0.2621
  15.200   2.0120   0.05129   0.04628  -0.0832  0.0430  0.8421  -5.8541   0.0000   0.2611
  15.400   2.0102   0.05361   0.04864  -0.0824  0.0417  0.8429  -5.9134   0.0000   0.2602
  15.600   2.0056   0.05618   0.05126  -0.0815  0.0404  0.8440  -5.9626   0.0000   0.2594
  15.800   2.0029   0.05863   0.05377  -0.0809  0.0394  0.8452  -6.0180   0.0000   0.2586
  16.000   2.0004   0.06111   0.05630  -0.0804  0.0387  0.8462  -6.0740   0.0000   0.2578
  16.200   1.9963   0.06382   0.05907  -0.0800  0.0379  0.8471  -6.1239   0.0000   0.2572
  16.400   1.9902   0.06682   0.06212  -0.0798  0.0370  0.8480  -6.1662   0.0000   0.2566
  16.600   1.9823   0.07011   0.06547  -0.0797  0.0361  0.8488  -6.2010   0.0000   0.2562
  16.800   1.9736   0.07360   0.06902  -0.0799  0.0352  0.8495  -6.2322   0.0000   0.2558
  17.000   1.9668   0.07691   0.07240  -0.0802  0.0347  0.8502  -6.2694   0.0000   0.2556
  17.200   1.9586   0.08045   0.07600  -0.0807  0.0341  0.8508  -6.3009   0.0000   0.2554
  17.400   1.9489   0.08420   0.07982  -0.0813  0.0334  0.8514  -6.3257   0.0000   0.2553
  17.600   1.9378   0.08821   0.08391  -0.0822  0.0328  0.8520  -6.3434   0.0000   0.2554
  17.800   1.9240   0.09266   0.08843  -0.0833  0.0321  0.8525  -6.3494   0.0000   0.2556
  18.000   1.9101   0.09716   0.09301  -0.0847  0.0315  0.8529  -6.3532   0.0000   0.2560
  18.200   1.8981   0.10144   0.09736  -0.0861  0.0310  0.8534  -6.3631   0.0000   0.2564
  18.400   1.8870   0.10560   0.10159  -0.0876  0.0307  0.8539  -6.3750   0.0000   0.2568
  18.600   1.8754   0.10986   0.10593  -0.0892  0.0302  0.8543  -6.3835   0.0000   0.2574
  18.800   1.8634   0.11421   0.11034  -0.0911  0.0298  0.8547  -6.3887   0.0000   0.2580
  19.000   1.8511   0.11862   0.11483  -0.0931  0.0293  0.8551  -6.3906   0.0000   0.2588
  19.200   1.8385   0.12311   0.11939  -0.0953  0.0289  0.8554  -6.3891   0.0000   0.2597
  19.400   1.8255   0.12768   0.12402  -0.0977  0.0284  0.8558  -6.3838   0.0000   0.2607
  19.600   1.8125   0.13224   0.12865  -0.1002  0.0278  0.8562  -6.3768   0.0000   0.2618
  19.800   1.8011   0.13660   0.13308  -0.1028  0.0274  0.8566  -6.3749   0.0000   0.2629
  20.000   1.7937   0.14038   0.13692  -0.1050  0.0270  0.8570  -6.3900   0.0000   0.2637
  20.200   1.7863   0.14417   0.14076  -0.1074  0.0267  0.8573  -6.4040   0.0000   0.2646
  20.400   1.7762   0.14820   0.14485  -0.1100  0.0263  0.8579  -6.4045   0.0000   0.2657
  20.600   1.7694   0.15164   0.14834  -0.1121  0.0258  0.8587  -6.4201   0.0000   0.2665
  20.800   1.7598   0.15557   0.15233  -0.1148  0.0254  0.8593  -6.4198   0.0000   0.2677
  21.000   1.7504   0.15949   0.15630  -0.1175  0.0249  0.8599  -6.4187   0.0000   0.2689
  21.200   1.7439   0.16293   0.15978  -0.1199  0.0244  0.8605  -6.4314   0.0000   0.2698
  21.400   1.7355   0.16668   0.16359  -0.1226  0.0240  0.8611  -6.4328   0.0000   0.2710
  21.600   1.7321   0.16958   0.16653  -0.1247  0.0237  0.8618  -6.4602   0.0000   0.2717
  21.800   1.7269   0.17279   0.16979  -0.1272  0.0234  0.8624  -6.4768   0.0000   0.2726
  22.000   1.7220   0.17599   0.17303  -0.1296  0.0230  0.8631  -6.4933   0.0000   0.2736
  22.200   1.7194   0.17878   0.17585  -0.1318  0.0226  0.8638  -6.5227   0.0000   0.2743
  22.400   1.7118   0.18248   0.17961  -0.1349  0.0222  0.8645  -6.5214   0.0000   0.2757
  22.600   1.7091   0.18536   0.18251  -0.1372  0.0217  0.8651  -6.5472   0.0000   0.2765
  22.800   1.7023   0.18899   0.18620  -0.1404  0.0213  0.8657  -6.5493   0.0000   0.2779
  23.000   1.7004   0.19178   0.18902  -0.1428  0.0209  0.8663  -6.5841   0.0000   0.2787
  23.200   1.7003   0.19426   0.19153  -0.1450  0.0206  0.8669  -6.6298   0.0000   0.2793
  23.400   1.6951   0.19767   0.19498  -0.1481  0.0203  0.8674  -6.6412   0.0000   0.2806
  23.600   1.6939   0.20035   0.19769  -0.1505  0.0198  0.8680  -6.6784   0.0000   0.2814
  23.800   1.6930   0.20298   0.20035  -0.1530  0.0194  0.8686  -6.7163   0.0000   0.2822
  24.000   1.6864   0.20667   0.20408  -0.1565  0.0189  0.8691  -6.7145   0.0000   0.2839
  24.200   1.6851   0.20938   0.20681  -0.1591  0.0184  0.8696  -6.7483   0.0000   0.2848
  24.400   1.6855   0.21181   0.20927  -0.1615  0.0181  0.8702  -6.7924   0.0000   0.2854
  24.600   1.6808   0.21516   0.21267  -0.1648  0.0178  0.8706  -6.8004   0.0000   0.2869
  24.800   1.6815   0.21753   0.21506  -0.1673  0.0174  0.8710  -6.8454   0.0000   0.2875
  25.000   1.6816   0.21997   0.21753  -0.1698  0.0170  0.8713  -6.8864   0.0000   0.2882


