xflr5 v6.47

 Calculated polar for: NACA24018_theta30_Ku4.5_Kl0.5_d0.35_delta13.38

 1 1 Reynolds number fixed          Mach number fixed         

 xtrf =   1.000 (top)        1.000 (bottom)
 Mach =   0.000     Re =     1.600 e 6     Ncrit =   5.000

  alpha     CL        CD       CDp       Cm    Top Xtr Bot Xtr   Cpmin    Chinge    XCp    
 ------- -------- --------- --------- -------- ------- ------- -------- --------- ---------
 -10.800   0.4975   0.07640   0.07354  -0.1697  0.6984  0.0986  -0.9218   0.0000   0.5933
 -10.600   0.5399   0.07624   0.07339  -0.1724  0.6885  0.1050  -0.8263   0.0000   0.5706
 -10.400   0.5922   0.07546   0.07259  -0.1763  0.6825  0.1134  -0.7774   0.0000   0.5482
 -10.200   0.6631   0.07366   0.07074  -0.1826  0.6746  0.1260  -0.8844   0.0000   0.5254
 -10.000   0.6649   0.08101   0.07808  -0.1926  0.6906  0.1233  -0.8700   0.0000   0.5414
  -9.800   0.7474   0.07852   0.07554  -0.2001  0.6817  0.1411  -1.0287   0.0000   0.5188
  -9.200   0.8032   0.07829   0.07447  -0.1875  0.4763  0.1824  -0.9932   0.0000   0.4808
  -9.000   0.8926   0.08142   0.07746  -0.2088  0.4859  0.2062  -1.1844   0.0000   0.4826
  -8.800   0.9227   0.08308   0.07903  -0.2103  0.4597  0.2292  -1.1887   0.0000   0.4762
  -8.600   0.9587   0.08497   0.08087  -0.2128  0.4388  0.2579  -1.2002   0.0000   0.4696
  -8.400   1.0050   0.08753   0.08340  -0.2167  0.4171  0.3027  -1.2216   0.0000   0.4628
  -8.200   1.0436   0.08950   0.08532  -0.2194  0.3979  0.3359  -1.2578   0.0000   0.4570
  -8.000   1.0782   0.09116   0.08693  -0.2215  0.3815  0.3582  -1.2985   0.0000   0.4517
  -7.800   1.1051   0.09231   0.08801  -0.2223  0.3673  0.3743  -1.3341   0.0000   0.4471
  -7.600   1.1333   0.09354   0.08921  -0.2234  0.3566  0.3885  -1.3711   0.0000   0.4426
  -7.400   1.1543   0.09425   0.08985  -0.2233  0.3459  0.3961  -1.4017   0.0000   0.4386
  -7.200   1.1808   0.09536   0.09094  -0.2240  0.3386  0.4072  -1.4377   0.0000   0.4345
  -7.000   1.2026   0.09610   0.09165  -0.2240  0.3317  0.4152  -1.4695   0.0000   0.4308
  -6.800   1.2256   0.09695   0.09245  -0.2242  0.3240  0.4213  -1.5025   0.0000   0.4271
  -6.600   1.2481   0.09773   0.09323  -0.2244  0.3191  0.4287  -1.5354   0.0000   0.4236
  -6.400   1.2686   0.09838   0.09384  -0.2242  0.3129  0.4351  -1.5679   0.0000   0.4202
  -6.200   1.2889   0.09902   0.09443  -0.2240  0.3059  0.4405  -1.6004   0.0000   0.4169
  -6.000   1.3104   0.09973   0.09514  -0.2239  0.3016  0.4472  -1.6356   0.0000   0.4137
  -5.800   1.3304   0.10032   0.09571  -0.2237  0.2972  0.4524  -1.6695   0.0000   0.4106
  -5.600   1.3495   0.10087   0.09622  -0.2233  0.2921  0.4561  -1.7027   0.0000   0.4076
  -5.400   1.3684   0.10139   0.09670  -0.2228  0.2865  0.4585  -1.7358   0.0000   0.4047
  -5.200   1.3872   0.10189   0.09719  -0.2224  0.2835  0.4626  -1.7690   0.0000   0.4018
  -5.000   1.4062   0.10240   0.09771  -0.2219  0.2806  0.4662  -1.8026   0.0000   0.3990
  -4.800   1.4245   0.10288   0.09817  -0.2214  0.2771  0.4692  -1.8356   0.0000   0.3963
  -4.600   1.4424   0.10334   0.09861  -0.2208  0.2729  0.4721  -1.8698   0.0000   0.3937
  -4.400   1.4603   0.10380   0.09903  -0.2202  0.2677  0.4751  -1.9055   0.0000   0.3911
  -4.200   1.4782   0.10427   0.09949  -0.2197  0.2647  0.4776  -1.9415   0.0000   0.3885
  -4.000   1.4957   0.10473   0.09993  -0.2190  0.2614  0.4794  -1.9773   0.0000   0.3860
  -3.800   1.5123   0.10511   0.10030  -0.2183  0.2577  0.4816  -2.0121   0.0000   0.3836
  -3.600   1.5291   0.10551   0.10068  -0.2175  0.2540  0.4847  -2.0472   0.0000   0.3812
  -3.400   1.5459   0.10592   0.10107  -0.2168  0.2502  0.4879  -2.0825   0.0000   0.3789
  -3.200   1.5626   0.10632   0.10148  -0.2160  0.2481  0.4908  -2.1178   0.0000   0.3766
  -3.000   1.5792   0.10672   0.10188  -0.2153  0.2459  0.4933  -2.1533   0.0000   0.3743
  -2.800   1.5959   0.10713   0.10228  -0.2145  0.2430  0.4957  -2.1889   0.0000   0.3721
  -2.600   1.6125   0.10754   0.10267  -0.2138  0.2392  0.4979  -2.2254   0.0000   0.3700
  -2.400   1.6291   0.10796   0.10305  -0.2130  0.2347  0.4997  -2.2644   0.0000   0.3678
  -2.200   1.6461   0.10839   0.10347  -0.2123  0.2315  0.5014  -2.3040   0.0000   0.3657
  -2.000   1.6615   0.10869   0.10378  -0.2114  0.2292  0.5042  -2.3417   0.0000   0.3636
  -1.800   1.6772   0.10903   0.10412  -0.2105  0.2267  0.5072  -2.3801   0.0000   0.3616
  -1.600   1.6928   0.10937   0.10445  -0.2096  0.2238  0.5100  -2.4184   0.0000   0.3596
  -1.400   1.7083   0.10971   0.10479  -0.2087  0.2205  0.5125  -2.4568   0.0000   0.3576
  -1.000   1.7401   0.11046   0.10551  -0.2070  0.2148  0.5171  -2.5370   0.0000   0.3537
  -0.800   1.7560   0.11083   0.10588  -0.2062  0.2120  0.5193  -2.5785   0.0000   0.3518
  -0.600   1.7718   0.11122   0.10626  -0.2053  0.2087  0.5211  -2.6229   0.0000   0.3500
  -0.400   1.7875   0.11163   0.10664  -0.2045  0.2047  0.5227  -2.6673   0.0000   0.3482
  -0.200   1.8015   0.11190   0.10690  -0.2034  0.2012  0.5251  -2.7094   0.0000   0.3463
   0.000   1.8157   0.11215   0.10716  -0.2023  0.1993  0.5279  -2.7520   0.0000   0.3445
   0.200   1.8298   0.11241   0.10743  -0.2012  0.1971  0.5304  -2.7947   0.0000   0.3427
   0.400   1.8439   0.11269   0.10771  -0.2001  0.1945  0.5328  -2.8375   0.0000   0.3409
   0.600   1.8578   0.11300   0.10801  -0.1991  0.1913  0.5349  -2.8802   0.0000   0.3392
   0.800   1.8716   0.11335   0.10833  -0.1980  0.1872  0.5371  -2.9234   0.0000   0.3375
   1.000   1.8862   0.11369   0.10868  -0.1970  0.1847  0.5392  -2.9728   0.0000   0.3358
   1.200   1.9007   0.11407   0.10905  -0.1960  0.1815  0.5412  -3.0223   0.0000   0.3341
   1.400   1.9152   0.11448   0.10946  -0.1951  0.1782  0.5430  -3.0722   0.0000   0.3324
   1.600   1.9300   0.11497   0.10991  -0.1941  0.1748  0.5447  -3.1227   0.0000   0.3308
   1.800   1.9416   0.11516   0.11011  -0.1928  0.1723  0.5471  -3.1710   0.0000   0.3292
   2.000   1.9533   0.11543   0.11040  -0.1915  0.1698  0.5494  -3.2202   0.0000   0.3275
   2.200   1.9646   0.11578   0.11075  -0.1901  0.1667  0.5515  -3.2688   0.0000   0.3259
   2.400   1.9755   0.11616   0.11113  -0.1887  0.1634  0.5534  -3.3172   0.0000   0.3243
   2.600   1.9867   0.11656   0.11152  -0.1874  0.1601  0.5553  -3.3689   0.0000   0.3227
   2.800   1.9988   0.11694   0.11191  -0.1862  0.1575  0.5573  -3.4274   0.0000   0.3211
   3.000   2.0109   0.11737   0.11233  -0.1850  0.1538  0.5593  -3.4861   0.0000   0.3195
   3.200   2.0228   0.11788   0.11281  -0.1838  0.1497  0.5613  -3.5449   0.0000   0.3180
   3.400   2.0359   0.11839   0.11332  -0.1828  0.1467  0.5635  -3.6065   0.0000   0.3165
   3.600   2.0490   0.11892   0.11384  -0.1818  0.1433  0.5654  -3.6729   0.0000   0.3150
   3.800   2.0597   0.11935   0.11426  -0.1805  0.1396  0.5671  -3.7361   0.0000   0.3135
   4.000   2.0687   0.11967   0.11457  -0.1790  0.1364  0.5689  -3.7958   0.0000   0.3120
   4.200   2.0785   0.11996   0.11488  -0.1775  0.1340  0.5705  -3.8609   0.0000   0.3105
   4.400   2.0877   0.12033   0.11525  -0.1761  0.1305  0.5721  -3.9259   0.0000   0.3090
   4.600   2.0950   0.12087   0.11578  -0.1745  0.1265  0.5736  -3.9887   0.0000   0.3075
   4.800   2.1033   0.12139   0.11631  -0.1730  0.1238  0.5751  -4.0547   0.0000   0.3060
   5.000   2.1116   0.12192   0.11684  -0.1715  0.1205  0.5768  -4.1214   0.0000   0.3045
   5.200   2.1196   0.12251   0.11742  -0.1701  0.1170  0.5786  -4.1875   0.0000   0.3031
   5.400   2.1290   0.12305   0.11797  -0.1688  0.1143  0.5807  -4.2631   0.0000   0.3016
   5.600   2.1388   0.12365   0.11857  -0.1675  0.1111  0.5828  -4.3423   0.0000   0.3002
   5.800   2.1473   0.12440   0.11929  -0.1663  0.1070  0.5847  -4.4187   0.0000   0.2989
   6.000   2.1569   0.12513   0.12002  -0.1651  0.1036  0.5864  -4.4986   0.0000   0.2975
   6.200   2.1644   0.12606   0.12095  -0.1639  0.1000  0.5876  -4.5734   0.0000   0.2961
   6.400   2.1682   0.12675   0.12164  -0.1622  0.0970  0.5889  -4.6416   0.0000   0.2947
   6.600   2.1739   0.12729   0.12220  -0.1606  0.0945  0.5901  -4.7158   0.0000   0.2933
   6.800   2.1786   0.12792   0.12283  -0.1590  0.0912  0.5913  -4.7877   0.0000   0.2919
   7.000   2.1830   0.12859   0.12350  -0.1574  0.0882  0.5925  -4.8590   0.0000   0.2905
   7.200   2.1867   0.12938   0.12431  -0.1559  0.0855  0.5937  -4.9286   0.0000   0.2892
   7.400   2.1891   0.13027   0.12521  -0.1543  0.0825  0.5950  -4.9950   0.0000   0.2878
   7.600   2.1930   0.13104   0.12600  -0.1528  0.0801  0.5963  -5.0656   0.0000   0.2865
   7.800   2.1972   0.13182   0.12678  -0.1514  0.0775  0.5978  -5.1378   0.0000   0.2852
   8.000   2.1985   0.13296   0.12794  -0.1500  0.0747  0.5992  -5.2015   0.0000   0.2839
   8.200   2.2021   0.13395   0.12894  -0.1487  0.0724  0.6007  -5.2727   0.0000   0.2826
   8.400   2.2056   0.13497   0.12998  -0.1475  0.0694  0.6021  -5.3436   0.0000   0.2814
   8.600   2.2068   0.13630   0.13131  -0.1463  0.0669  0.6036  -5.4079   0.0000   0.2802
   8.800   2.2103   0.13746   0.13250  -0.1453  0.0644  0.6051  -5.4795   0.0000   0.2790
   9.000   2.2121   0.13890   0.13395  -0.1444  0.0620  0.6067  -5.5459   0.0000   0.2779
   9.200   2.2154   0.14020   0.13527  -0.1436  0.0601  0.6080  -5.6175   0.0000   0.2768
   9.400   2.2166   0.14150   0.13660  -0.1427  0.0582  0.6090  -5.6818   0.0000   0.2757
   9.600   2.2156   0.14269   0.13781  -0.1416  0.0564  0.6100  -5.7382   0.0000   0.2746
   9.800   2.2138   0.14398   0.13914  -0.1406  0.0550  0.6109  -5.7928   0.0000   0.2736
  10.000   2.2135   0.14506   0.14026  -0.1397  0.0534  0.6118  -5.8559   0.0000   0.2725
  10.200   2.2108   0.14644   0.14168  -0.1388  0.0518  0.6127  -5.9100   0.0000   0.2715
  10.400   2.2078   0.14782   0.14309  -0.1381  0.0501  0.6135  -5.9632   0.0000   0.2706
  10.600   2.2056   0.14916   0.14447  -0.1375  0.0487  0.6143  -6.0189   0.0000   0.2697
  10.800   2.2030   0.15055   0.14591  -0.1369  0.0471  0.6151  -6.0728   0.0000   0.2688
  11.000   2.1988   0.15215   0.14754  -0.1366  0.0455  0.6158  -6.1205   0.0000   0.2680
  11.200   2.1958   0.15364   0.14907  -0.1363  0.0443  0.6166  -6.1766   0.0000   0.2673
  11.400   2.1932   0.15509   0.15057  -0.1361  0.0428  0.6174  -6.2340   0.0000   0.2665
  11.600   2.1883   0.15685   0.15237  -0.1362  0.0415  0.6183  -6.2820   0.0000   0.2659
  11.800   2.1852   0.15841   0.15397  -0.1363  0.0403  0.6192  -6.3369   0.0000   0.2653
  12.000   2.1815   0.16010   0.15571  -0.1365  0.0393  0.6202  -6.3886   0.0000   0.2647
  12.200   2.1783   0.16174   0.15740  -0.1369  0.0381  0.6213  -6.4419   0.0000   0.2642
  12.400   2.1734   0.16361   0.15931  -0.1375  0.0370  0.6224  -6.4879   0.0000   0.2638
  12.600   2.1688   0.16550   0.16125  -0.1382  0.0361  0.6236  -6.5342   0.0000   0.2634
  12.800   2.1666   0.16719   0.16299  -0.1389  0.0351  0.6252  -6.5911   0.0000   0.2630
  13.000   2.1620   0.16923   0.16508  -0.1401  0.0341  0.6268  -6.6360   0.0000   0.2628
  13.200   2.1582   0.17129   0.16719  -0.1413  0.0331  0.6284  -6.6844   0.0000   0.2626
  13.400   2.1536   0.17337   0.16932  -0.1426  0.0324  0.6296  -6.7283   0.0000   0.2625
  13.600   2.1475   0.17513   0.17115  -0.1436  0.0317  0.6303  -6.7645   0.0000   0.2623
  13.800   2.1419   0.17684   0.17291  -0.1446  0.0309  0.6309  -6.8029   0.0000   0.2620
  14.000   2.1340   0.17887   0.17500  -0.1460  0.0302  0.6314  -6.8288   0.0000   0.2621
  14.200   2.1267   0.18081   0.17699  -0.1474  0.0295  0.6319  -6.8575   0.0000   0.2620
  14.400   2.1186   0.18287   0.17910  -0.1490  0.0288  0.6323  -6.8809   0.0000   0.2621
  14.600   2.1118   0.18478   0.18108  -0.1506  0.0282  0.6328  -6.9096   0.0000   0.2622
  14.800   2.1053   0.18665   0.18300  -0.1520  0.0274  0.6333  -6.9397   0.0000   0.2622
  15.000   2.0966   0.18882   0.18524  -0.1540  0.0267  0.6337  -6.9567   0.0000   0.2624
  15.200   2.0892   0.19082   0.18728  -0.1558  0.0260  0.6342  -6.9807   0.0000   0.2626
  15.400   2.0803   0.19305   0.18957  -0.1579  0.0254  0.6346  -6.9942   0.0000   0.2629
  15.600   2.0749   0.19480   0.19137  -0.1595  0.0248  0.6351  -7.0269   0.0000   0.2630
  15.800   2.0664   0.19698   0.19362  -0.1617  0.0243  0.6356  -7.0414   0.0000   0.2633
  16.000   2.0604   0.19883   0.19551  -0.1634  0.0236  0.6361  -7.0690   0.0000   0.2635
  16.200   2.0513   0.20113   0.19787  -0.1659  0.0231  0.6366  -7.0777   0.0000   0.2640
  16.400   2.0450   0.20305   0.19983  -0.1679  0.0226  0.6372  -7.1018   0.0000   0.2642
  16.600   2.0382   0.20505   0.20189  -0.1700  0.0222  0.6378  -7.1222   0.0000   0.2645
  16.800   2.0333   0.20681   0.20369  -0.1719  0.0217  0.6385  -7.1525   0.0000   0.2646
  17.000   2.0287   0.20851   0.20544  -0.1737  0.0212  0.6393  -7.1847   0.0000   0.2647
  17.200   2.0209   0.21069   0.20767  -0.1762  0.0207  0.6400  -7.1960   0.0000   0.2652
  17.400   2.0159   0.21245   0.20947  -0.1782  0.0203  0.6409  -7.2243   0.0000   0.2654
  17.600   2.0085   0.21460   0.21167  -0.1807  0.0198  0.6419  -7.2357   0.0000   0.2659
  17.800   2.0043   0.21630   0.21342  -0.1827  0.0194  0.6430  -7.2669   0.0000   0.2661
  18.000   2.0015   0.21787   0.21503  -0.1845  0.0190  0.6444  -7.3061   0.0000   0.2661
  18.200   1.9959   0.21992   0.21713  -0.1871  0.0186  0.6458  -7.3257   0.0000   0.2666
  18.400   1.9931   0.22180   0.21904  -0.1895  0.0181  0.6477  -7.3612   0.0000   0.2669


