xflr5 v6.47

 Calculated polar for: NACA24018_theta30_Ku4.5_Kl0.5_d0.31_delta11.03

 1 1 Reynolds number fixed          Mach number fixed         

 xtrf =   1.000 (top)        1.000 (bottom)
 Mach =   0.000     Re =     0.200 e 6     Ncrit =   5.000

  alpha     CL        CD       CDp       Cm    Top Xtr Bot Xtr   Cpmin    Chinge    XCp    
 ------- -------- --------- --------- -------- ------- ------- -------- --------- ---------
 -15.000  -0.5564   0.06548   0.05991  -0.0947  0.8631  0.0589  -4.4441   0.0000   0.0508
 -14.800  -0.5330   0.06494   0.05931  -0.0972  0.8629  0.0599  -4.3350   0.0000   0.0382
 -14.600  -0.5198   0.06404   0.05844  -0.0977  0.8625  0.0605  -4.2456   0.0000   0.0327
 -14.400  -0.5023   0.06333   0.05773  -0.0988  0.8617  0.0614  -4.1462   0.0000   0.0237
 -14.200  -0.4803   0.06274   0.05711  -0.1006  0.8603  0.0625  -4.0379   0.0000   0.0104
 -14.000  -0.4536   0.06235   0.05662  -0.1031  0.8590  0.0638  -3.9211   0.0000  -0.0082
 -13.800  -0.4243   0.06211   0.05624  -0.1058  0.8578  0.0653  -3.8018   0.0000  -0.0314
 -13.600  -0.3989   0.06219   0.05637  -0.1073  0.8566  0.0663  -3.6771   0.0000  -0.0519
 -13.400  -0.3696   0.06240   0.05658  -0.1095  0.8556  0.0677  -3.5442   0.0000  -0.0807
 -13.200  -0.3381   0.06275   0.05688  -0.1120  0.8549  0.0696  -3.4110   0.0000  -0.1176
 -13.000  -0.3056   0.06327   0.05728  -0.1146  0.8544  0.0716  -3.2807   0.0000  -0.1638
 -12.800  -0.2944   0.06265   0.05673  -0.1142  0.8516  0.0725  -3.2048   0.0000  -0.1768
 -12.600  -0.2659   0.06277   0.05687  -0.1160  0.8484  0.0741  -3.0850   0.0000  -0.2277
 -12.400  -0.2333   0.06317   0.05723  -0.1183  0.8467  0.0763  -2.9586   0.0000  -0.3025
 -11.800  -0.1463   0.06327   0.05731  -0.1233  0.8330  0.0829  -2.6194   0.0000  -0.6567
 -11.600  -0.1151   0.06343   0.05741  -0.1250  0.8295  0.0858  -2.5099   0.0000  -0.9145
 -11.400  -0.0799   0.06386   0.05789  -0.1275  0.8278  0.0885  -2.3869   0.0000  -1.4514
 -11.200  -0.0533   0.06370   0.05772  -0.1287  0.8212  0.0915  -2.2875   0.0000  -2.3168
 -11.000  -0.0210   0.06402   0.05804  -0.1306  0.8193  0.0949  -2.1771   0.0000  -6.3338
 -10.800   0.0086   0.06418   0.05824  -0.1323  0.8149  0.0983  -2.0720   0.0000  16.4418
 -10.600   0.0381   0.06439   0.05842  -0.1337  0.8115  0.1025  -1.9747   0.0000   3.9424
 -10.400   0.0738   0.06478   0.05887  -0.1362  0.8096  0.1069  -1.8652   0.0000   2.1839
 -10.200   0.1020   0.06493   0.05900  -0.1375  0.8051  0.1117  -1.7736   0.0000   1.6579
 -10.000   0.1364   0.06522   0.05936  -0.1397  0.8016  0.1171  -1.6699   0.0000   1.3166
  -9.800   0.1728   0.06545   0.05958  -0.1420  0.7995  0.1239  -1.5647   0.0000   1.1028
  -9.600   0.2047   0.06566   0.05984  -0.1440  0.7940  0.1309  -1.4704   0.0000   0.9777
  -9.400   0.2414   0.06597   0.06020  -0.1464  0.7910  0.1395  -1.3726   0.0000   0.8755
  -9.200   0.2800   0.06635   0.06061  -0.1491  0.7893  0.1502  -1.2732   0.0000   0.7976
  -9.000   0.3089   0.06675   0.06107  -0.1507  0.7832  0.1610  -1.1940   0.0000   0.7500
  -8.600   0.3939   0.06815   0.06266  -0.1576  0.7789  0.2007  -0.9994   0.0000   0.6576
  -8.400   0.4293   0.06919   0.06383  -0.1604  0.7717  0.2288  -0.9153   0.0000   0.6293
  -8.200   0.4868   0.07083   0.06572  -0.1665  0.7691  0.2873  -0.8036   0.0000   0.5960
  -8.000   0.5168   0.07202   0.06713  -0.1683  0.7591  0.3358  -0.8168   0.0000   0.5785
  -7.600   0.5510   0.07384   0.06916  -0.1676  0.7306  0.3902  -0.8565   0.0000   0.5553
  -7.400   0.5806   0.07446   0.06981  -0.1688  0.7224  0.4132  -0.8868   0.0000   0.5410
  -7.200   0.5964   0.07428   0.06967  -0.1675  0.7143  0.4254  -0.9074   0.0000   0.5306
  -6.800   0.6528   0.07472   0.07009  -0.1690  0.6996  0.4526  -0.9678   0.0000   0.5073
  -6.600   0.6656   0.07376   0.06913  -0.1669  0.6929  0.4582  -0.9881   0.0000   0.4986
  -6.400   0.7051   0.07429   0.06961  -0.1693  0.6826  0.4715  -1.0289   0.0000   0.4875
  -6.200   0.7180   0.07291   0.06821  -0.1670  0.6754  0.4754  -1.0507   0.0000   0.4796
  -6.000   0.7683   0.07324   0.06844  -0.1710  0.6630  0.4896  -1.1032   0.0000   0.4691
  -5.800   0.7804   0.07138   0.06653  -0.1684  0.6535  0.4920  -1.1255   0.0000   0.4620
  -5.400   0.8525   0.06888   0.06379  -0.1709  0.6235  0.5091  -1.2101   0.0000   0.4460
  -5.200   0.8702   0.06696   0.06176  -0.1691  0.6081  0.5108  -1.2372   0.0000   0.4398
  -5.000   0.8914   0.06538   0.06003  -0.1681  0.5897  0.5125  -1.2672   0.0000   0.4338
  -4.800   0.9124   0.06427   0.05877  -0.1673  0.5691  0.5144  -1.2966   0.0000   0.4283
  -4.400   0.9907   0.06528   0.05935  -0.1727  0.5183  0.5281  -1.3870   0.0000   0.4186
  -4.200   1.0015   0.06511   0.05906  -0.1708  0.5017  0.5290  -1.4083   0.0000   0.4145
  -4.000   1.0126   0.06510   0.05897  -0.1690  0.4860  0.5299  -1.4310   0.0000   0.4105
  -3.800   1.0237   0.06515   0.05893  -0.1672  0.4716  0.5309  -1.4536   0.0000   0.4067
  -3.600   1.0347   0.06524   0.05894  -0.1655  0.4583  0.5322  -1.4762   0.0000   0.4029
  -3.400   1.0467   0.06541   0.05904  -0.1639  0.4455  0.5337  -1.4997   0.0000   0.3993
  -3.200   1.0605   0.06565   0.05922  -0.1626  0.4341  0.5356  -1.5248   0.0000   0.3958
  -2.800   1.1268   0.06828   0.06163  -0.1669  0.4072  0.5475  -1.6142   0.0000   0.3897
  -2.600   1.1366   0.06832   0.06163  -0.1649  0.3993  0.5483  -1.6372   0.0000   0.3865
  -2.400   1.1473   0.06840   0.06168  -0.1632  0.3915  0.5493  -1.6611   0.0000   0.3833
  -2.200   1.1584   0.06853   0.06176  -0.1615  0.3845  0.5503  -1.6855   0.0000   0.3802
  -2.000   1.1713   0.06869   0.06191  -0.1601  0.3780  0.5516  -1.7116   0.0000   0.3772
  -1.800   1.1848   0.06894   0.06214  -0.1589  0.3711  0.5530  -1.7385   0.0000   0.3743
  -1.600   1.1990   0.06926   0.06240  -0.1578  0.3648  0.5547  -1.7662   0.0000   0.3715
  -1.400   1.2153   0.06963   0.06277  -0.1570  0.3585  0.5568  -1.7973   0.0000   0.3688
  -1.000   1.2740   0.07194   0.06496  -0.1599  0.3444  0.5672  -1.8911   0.0000   0.3644
  -0.800   1.2853   0.07205   0.06510  -0.1582  0.3395  0.5681  -1.9189   0.0000   0.3617
  -0.600   1.2970   0.07224   0.06529  -0.1567  0.3345  0.5691  -1.9473   0.0000   0.3592
  -0.400   1.3088   0.07246   0.06549  -0.1553  0.3299  0.5702  -1.9760   0.0000   0.3566
  -0.200   1.3215   0.07271   0.06571  -0.1539  0.3260  0.5715  -2.0057   0.0000   0.3542
   0.000   1.3353   0.07299   0.06603  -0.1528  0.3217  0.5730  -2.0366   0.0000   0.3518
   0.200   1.3494   0.07336   0.06641  -0.1517  0.3172  0.5750  -2.0694   0.0000   0.3495
   0.400   1.3646   0.07385   0.06689  -0.1509  0.3128  0.5775  -2.1039   0.0000   0.3473
   0.600   1.3837   0.07455   0.06754  -0.1507  0.3087  0.5809  -2.1433   0.0000   0.3453
   0.800   1.4187   0.07607   0.06910  -0.1530  0.3034  0.5866  -2.2016   0.0000   0.3439
   1.000   1.4294   0.07630   0.06936  -0.1514  0.2997  0.5875  -2.2310   0.0000   0.3417
   1.200   1.4401   0.07659   0.06966  -0.1499  0.2961  0.5885  -2.2610   0.0000   0.3395
   1.400   1.4509   0.07691   0.06997  -0.1484  0.2927  0.5896  -2.2940   0.0000   0.3374
   1.600   1.4623   0.07721   0.07027  -0.1470  0.2894  0.5910  -2.3278   0.0000   0.3353
   1.800   1.4745   0.07759   0.07071  -0.1457  0.2858  0.5927  -2.3624   0.0000   0.3333
   2.000   1.4870   0.07805   0.07121  -0.1445  0.2821  0.5947  -2.3978   0.0000   0.3313
   2.200   1.5007   0.07864   0.07181  -0.1436  0.2785  0.5971  -2.4351   0.0000   0.3295
   2.400   1.5176   0.07941   0.07257  -0.1432  0.2750  0.6001  -2.4773   0.0000   0.3278
   2.600   1.5511   0.08108   0.07425  -0.1454  0.2707  0.6057  -2.5444   0.0000   0.3267
   2.800   1.5607   0.08142   0.07466  -0.1438  0.2676  0.6065  -2.5796   0.0000   0.3248
   3.000   1.5698   0.08183   0.07512  -0.1422  0.2644  0.6075  -2.6143   0.0000   0.3229
   3.200   1.5785   0.08230   0.07561  -0.1406  0.2613  0.6086  -2.6485   0.0000   0.3210
   3.400   1.5873   0.08279   0.07611  -0.1390  0.2585  0.6100  -2.6832   0.0000   0.3192
   3.600   1.5970   0.08325   0.07657  -0.1375  0.2558  0.6115  -2.7192   0.0000   0.3174
   3.800   1.6076   0.08382   0.07723  -0.1363  0.2527  0.6133  -2.7579   0.0000   0.3156
   4.000   1.6192   0.08450   0.07799  -0.1352  0.2494  0.6154  -2.7985   0.0000   0.3140
   4.200   1.6319   0.08536   0.07889  -0.1344  0.2460  0.6178  -2.8449   0.0000   0.3124
   4.400   1.6470   0.08644   0.07996  -0.1340  0.2426  0.6206  -2.8958   0.0000   0.3110
   4.600   1.6724   0.08807   0.08160  -0.1352  0.2389  0.6250  -2.9640   0.0000   0.3100
   4.800   1.6793   0.08865   0.08228  -0.1336  0.2360  0.6259  -3.0010   0.0000   0.3083
   5.000   1.6859   0.08928   0.08298  -0.1319  0.2331  0.6269  -3.0387   0.0000   0.3066
   5.200   1.6924   0.08995   0.08370  -0.1303  0.2302  0.6281  -3.0787   0.0000   0.3050
   5.400   1.6988   0.09064   0.08443  -0.1288  0.2276  0.6294  -3.1194   0.0000   0.3033
   5.600   1.7057   0.09139   0.08517  -0.1273  0.2250  0.6309  -3.1641   0.0000   0.3018
   5.800   1.7136   0.09225   0.08612  -0.1261  0.2222  0.6326  -3.2104   0.0000   0.3003
   6.000   1.7222   0.09322   0.08719  -0.1250  0.2190  0.6345  -3.2583   0.0000   0.2988
   6.200   1.7318   0.09431   0.08834  -0.1242  0.2159  0.6364  -3.3084   0.0000   0.2975
   6.400   1.7421   0.09554   0.08961  -0.1235  0.2128  0.6387  -3.3632   0.0000   0.2962
   6.600   1.7552   0.09697   0.09103  -0.1234  0.2099  0.6416  -3.4280   0.0000   0.2951
   6.800   1.7694   0.09845   0.09261  -0.1235  0.2066  0.6446  -3.4949   0.0000   0.2940
   7.000   1.7733   0.09937   0.09363  -0.1220  0.2037  0.6456  -3.5393   0.0000   0.2925
   7.200   1.7763   0.10041   0.09473  -0.1205  0.2008  0.6465  -3.5820   0.0000   0.2911
   7.400   1.7793   0.10151   0.09588  -0.1192  0.1981  0.6477  -3.6269   0.0000   0.2897
   7.600   1.7829   0.10262   0.09700  -0.1180  0.1956  0.6489  -3.6768   0.0000   0.2884
   7.800   1.7875   0.10380   0.09827  -0.1169  0.1929  0.6502  -3.7284   0.0000   0.2872
   8.000   1.7925   0.10508   0.09966  -0.1161  0.1899  0.6517  -3.7813   0.0000   0.2860
   8.200   1.7971   0.10651   0.10117  -0.1153  0.1868  0.6532  -3.8335   0.0000   0.2848
   8.400   1.8016   0.10803   0.10274  -0.1147  0.1839  0.6548  -3.8859   0.0000   0.2838
   8.600   1.8066   0.10960   0.10431  -0.1143  0.1813  0.6565  -3.9397   0.0000   0.2828
   8.800   1.8131   0.11127   0.10609  -0.1141  0.1781  0.6587  -3.9987   0.0000   0.2819
   9.000   1.8226   0.11330   0.10823  -0.1146  0.1745  0.6618  -4.0682   0.0000   0.2812
   9.200   1.8269   0.11511   0.11011  -0.1145  0.1714  0.6636  -4.1246   0.0000   0.2803
   9.400   1.8264   0.11659   0.11161  -0.1137  0.1690  0.6645  -4.1692   0.0000   0.2793
   9.600   1.8263   0.11808   0.11316  -0.1130  0.1666  0.6654  -4.2145   0.0000   0.2784
   9.800   1.8268   0.11964   0.11484  -0.1125  0.1637  0.6664  -4.2604   0.0000   0.2775
  10.000   1.8267   0.12135   0.11665  -0.1122  0.1608  0.6674  -4.3048   0.0000   0.2767
  10.200   1.8265   0.12314   0.11850  -0.1120  0.1580  0.6685  -4.3491   0.0000   0.2760
  10.400   1.8264   0.12498   0.12036  -0.1120  0.1555  0.6696  -4.3936   0.0000   0.2753
  10.600   1.8269   0.12683   0.12231  -0.1121  0.1528  0.6707  -4.4386   0.0000   0.2747
  10.800   1.8271   0.12879   0.12438  -0.1125  0.1498  0.6720  -4.4856   0.0000   0.2742
  11.000   1.8267   0.13089   0.12656  -0.1130  0.1468  0.6733  -4.5311   0.0000   0.2738
  11.200   1.8261   0.13306   0.12876  -0.1136  0.1441  0.6747  -4.5763   0.0000   0.2734
  11.400   1.8266   0.13518   0.13094  -0.1144  0.1414  0.6764  -4.6252   0.0000   0.2731
  11.600   1.8274   0.13751   0.13339  -0.1155  0.1383  0.6784  -4.6741   0.0000   0.2730
  11.800   1.8301   0.14015   0.13612  -0.1173  0.1350  0.6810  -4.7296   0.0000   0.2730
  12.000   1.8283   0.14237   0.13837  -0.1183  0.1324  0.6822  -4.7702   0.0000   0.2729
  12.200   1.8243   0.14446   0.14052  -0.1191  0.1300  0.6829  -4.8027   0.0000   0.2727
  12.400   1.8199   0.14669   0.14288  -0.1201  0.1272  0.6836  -4.8319   0.0000   0.2727
  12.600   1.8155   0.14897   0.14524  -0.1213  0.1244  0.6844  -4.8605   0.0000   0.2727
  12.800   1.8112   0.15126   0.14758  -0.1226  0.1218  0.6851  -4.8895   0.0000   0.2728
  13.000   1.8076   0.15351   0.14986  -0.1239  0.1194  0.6859  -4.9205   0.0000   0.2729
  13.200   1.8030   0.15599   0.15246  -0.1256  0.1165  0.6867  -4.9446   0.0000   0.2732
  13.400   1.7982   0.15851   0.15506  -0.1274  0.1138  0.6875  -4.9679   0.0000   0.2736
  13.600   1.7941   0.16094   0.15752  -0.1293  0.1112  0.6884  -4.9941   0.0000   0.2739
  13.800   1.7910   0.16327   0.15990  -0.1310  0.1088  0.6894  -5.0228   0.0000   0.2743
  14.000   1.7861   0.16592   0.16267  -0.1333  0.1061  0.6903  -5.0415   0.0000   0.2748
  14.200   1.7818   0.16849   0.16531  -0.1355  0.1035  0.6914  -5.0629   0.0000   0.2754
  14.400   1.7790   0.17085   0.16769  -0.1375  0.1011  0.6927  -5.0931   0.0000   0.2758
  14.600   1.7752   0.17345   0.17036  -0.1400  0.0986  0.6941  -5.1156   0.0000   0.2765
  14.800   1.7708   0.17623   0.17325  -0.1427  0.0959  0.6955  -5.1332   0.0000   0.2773
  15.000   1.7688   0.17882   0.17588  -0.1453  0.0933  0.6972  -5.1617   0.0000   0.2780
  15.200   1.7701   0.18134   0.17838  -0.1480  0.0909  0.6994  -5.2046   0.0000   0.2786
  15.400   1.7644   0.18418   0.18135  -0.1510  0.0883  0.7002  -5.2142   0.0000   0.2796
  15.600   1.7589   0.18665   0.18388  -0.1534  0.0859  0.7007  -5.2274   0.0000   0.2803
  15.800   1.7562   0.18863   0.18586  -0.1552  0.0838  0.7014  -5.2568   0.0000   0.2807
  16.000   1.7525   0.19089   0.18817  -0.1574  0.0817  0.7020  -5.2776   0.0000   0.2812
  16.200   1.7463   0.19355   0.19093  -0.1603  0.0793  0.7025  -5.2820   0.0000   0.2822
  16.400   1.7428   0.19582   0.19324  -0.1627  0.0771  0.7032  -5.3018   0.0000   0.2829
  16.600   1.7428   0.19749   0.19489  -0.1643  0.0753  0.7041  -5.3436   0.0000   0.2830
  16.800   1.7373   0.20013   0.19763  -0.1672  0.0731  0.7048  -5.3477   0.0000   0.2840
  17.000   1.7328   0.20261   0.20019  -0.1701  0.0710  0.7055  -5.3567   0.0000   0.2849
  17.200   1.7318   0.20454   0.20212  -0.1722  0.0691  0.7065  -5.3903   0.0000   0.2853
  17.400   1.7323   0.20621   0.20379  -0.1740  0.0674  0.7076  -5.4353   0.0000   0.2854
  17.600   1.7260   0.20907   0.20676  -0.1774  0.0653  0.7084  -5.4310   0.0000   0.2868
  17.800   1.7238   0.21124   0.20897  -0.1800  0.0634  0.7096  -5.4551   0.0000   0.2874
  18.000   1.7256   0.21276   0.21047  -0.1817  0.0618  0.7112  -5.5072   0.0000   0.2875
  18.200   1.7230   0.21511   0.21289  -0.1846  0.0601  0.7125  -5.5242   0.0000   0.2883
  18.400   1.7193   0.21770   0.21556  -0.1879  0.0582  0.7139  -5.5317   0.0000   0.2895
  18.600   1.7203   0.21969   0.21756  -0.1905  0.0565  0.7156  -5.5712   0.0000   0.2899
  18.800   1.7262   0.22096   0.21879  -0.1923  0.0551  0.7175  -5.6464   0.0000   0.2897
  19.000   1.7189   0.22387   0.22183  -0.1960  0.0533  0.7179  -5.6255   0.0000   0.2912
  19.200   1.7150   0.22609   0.22410  -0.1988  0.0517  0.7184  -5.6324   0.0000   0.2921
  19.400   1.7157   0.22743   0.22544  -0.2004  0.0505  0.7191  -5.6773   0.0000   0.2921
  19.600   1.7181   0.22843   0.22642  -0.2016  0.0494  0.7199  -5.7359   0.0000   0.2917
  19.800   1.7102   0.23152   0.22963  -0.2057  0.0477  0.7203  -5.7016   0.0000   0.2935
  20.000   1.7070   0.23364   0.23181  -0.2085  0.0463  0.7210  -5.7087   0.0000   0.2944
  20.200   1.7088   0.23486   0.23302  -0.2101  0.0452  0.7219  -5.7593   0.0000   0.2942


