xflr5 v6.47

 Calculated polar for: NACA24018_theta30_Ku4.5_Kl0.5_d0.14_delta3.44

 1 1 Reynolds number fixed          Mach number fixed         

 xtrf =   1.000 (top)        1.000 (bottom)
 Mach =   0.000     Re =     2.200 e 6     Ncrit =   5.000

  alpha     CL        CD       CDp       Cm    Top Xtr Bot Xtr   Cpmin    Chinge    XCp    
 ------- -------- --------- --------- -------- ------- ------- -------- --------- ---------
 -15.000  -1.0043   0.02535   0.02073  -0.0904  0.9356  0.0257  -6.6694   0.0000   0.1368
 -14.800  -0.9911   0.02484   0.02020  -0.0898  0.9350  0.0259  -6.5476   0.0000   0.1366
 -14.600  -0.9770   0.02435   0.01969  -0.0893  0.9345  0.0262  -6.4235   0.0000   0.1361
 -14.400  -0.9803   0.02349   0.01880  -0.0857  0.9296  0.0263  -6.3625   0.0000   0.1406
 -14.200  -0.9615   0.02297   0.01827  -0.0858  0.9286  0.0266  -6.2221   0.0000   0.1390
 -14.000  -0.9404   0.02251   0.01779  -0.0863  0.9279  0.0268  -6.0743   0.0000   0.1367
 -13.800  -0.9178   0.02199   0.01727  -0.0870  0.9274  0.0274  -5.9272   0.0000   0.1338
 -13.600  -0.8939   0.02153   0.01682  -0.0880  0.9271  0.0279  -5.7786   0.0000   0.1304
 -13.400  -0.8682   0.02112   0.01640  -0.0892  0.9268  0.0283  -5.6247   0.0000   0.1262
 -13.200  -0.8673   0.02061   0.01589  -0.0859  0.9229  0.0286  -5.5542   0.0000   0.1303
 -13.000  -0.8452   0.02021   0.01548  -0.0864  0.9219  0.0290  -5.4144   0.0000   0.1273
 -12.800  -0.8211   0.01984   0.01511  -0.0871  0.9212  0.0294  -5.2693   0.0000   0.1234
 -12.600  -0.7961   0.01950   0.01476  -0.0880  0.9207  0.0298  -5.1227   0.0000   0.1190
 -12.400  -0.7700   0.01917   0.01443  -0.0891  0.9203  0.0301  -4.9775   0.0000   0.1139
 -12.200  -0.7433   0.01882   0.01408  -0.0903  0.9199  0.0308  -4.8350   0.0000   0.1081
 -12.000  -0.7157   0.01847   0.01374  -0.0916  0.9196  0.0314  -4.6912   0.0000   0.1015
 -11.800  -0.6863   0.01811   0.01340  -0.0933  0.9193  0.0321  -4.5432   0.0000   0.0935
 -11.600  -0.6746   0.01791   0.01320  -0.0917  0.9168  0.0325  -4.4482   0.0000   0.0938
 -11.400  -0.6548   0.01768   0.01297  -0.0915  0.9148  0.0331  -4.3307   0.0000   0.0899
 -11.200  -0.6295   0.01741   0.01271  -0.0923  0.9136  0.0336  -4.1989   0.0000   0.0830
 -11.000  -0.6024   0.01712   0.01242  -0.0935  0.9125  0.0343  -4.0632   0.0000   0.0743
 -10.800  -0.5730   0.01678   0.01210  -0.0950  0.9115  0.0353  -3.9233   0.0000   0.0634
  -9.600  -0.3719   0.01395   0.00914  -0.1084  0.8352  0.0414  -3.0619   0.0000  -0.0665
  -9.400  -0.3473   0.01371   0.00872  -0.1090  0.7910  0.0421  -2.9523   0.0000  -0.0895
  -9.200  -0.3283   0.01367   0.00859  -0.1085  0.7624  0.0433  -2.8571   0.0000  -0.1067
  -9.000  -0.3073   0.01364   0.00848  -0.1084  0.7389  0.0444  -2.7580   0.0000  -0.1299
  -8.800  -0.2858   0.01361   0.00837  -0.1084  0.7158  0.0455  -2.6591   0.0000  -0.1573
  -8.600  -0.2634   0.01358   0.00826  -0.1085  0.6931  0.0466  -2.5624   0.0000  -0.1913
  -8.400  -0.2396   0.01353   0.00815  -0.1090  0.6708  0.0482  -2.4652   0.0000  -0.2358
  -8.200  -0.2150   0.01348   0.00804  -0.1095  0.6513  0.0498  -2.3677   0.0000  -0.2926
  -8.000  -0.1902   0.01343   0.00794  -0.1101  0.6329  0.0511  -2.2710   0.0000  -0.3648
  -7.800  -0.1649   0.01339   0.00784  -0.1108  0.6134  0.0527  -2.1747   0.0000  -0.4617
  -7.600  -0.1390   0.01334   0.00773  -0.1116  0.5938  0.0547  -2.0783   0.0000  -0.5984
  -7.400  -0.1130   0.01330   0.00764  -0.1124  0.5762  0.0566  -1.9832   0.0000  -0.7981
  -7.200  -0.0862   0.01326   0.00755  -0.1133  0.5594  0.0589  -1.8900   0.0000  -1.1317
  -7.000  -0.0594   0.01322   0.00746  -0.1143  0.5418  0.0612  -1.8005   0.0000  -1.7668
  -6.800  -0.0330   0.01319   0.00738  -0.1151  0.5250  0.0634  -1.7130   0.0000  -3.4016
  -6.600  -0.0061   0.01317   0.00733  -0.1161  0.5106  0.0665  -1.6260   0.0000  -19.5932
  -6.400   0.0201   0.01317   0.00728  -0.1169  0.4977  0.0690  -1.5413   0.0000   6.2920
  -6.000   0.0734   0.01316   0.00722  -0.1186  0.4712  0.0755  -1.3811   0.0000   1.9257
  -5.800   0.1001   0.01317   0.00719  -0.1196  0.4568  0.0793  -1.3033   0.0000   1.4846
  -5.600   0.1267   0.01319   0.00716  -0.1204  0.4410  0.0837  -1.2306   0.0000   1.2308
  -5.400   0.1539   0.01320   0.00715  -0.1214  0.4251  0.0897  -1.1581   0.0000   1.0624
  -5.200   0.1804   0.01323   0.00714  -0.1223  0.4119  0.0945  -1.0876   0.0000   0.9463
  -5.000   0.2074   0.01326   0.00714  -0.1232  0.4009  0.1001  -1.0177   0.0000   0.8592
  -4.800   0.2346   0.01328   0.00716  -0.1242  0.3919  0.1067  -0.9485   0.0000   0.7917
  -4.600   0.2618   0.01332   0.00718  -0.1252  0.3818  0.1147  -0.8811   0.0000   0.7383
  -4.400   0.2893   0.01335   0.00722  -0.1262  0.3739  0.1238  -0.8201   0.0000   0.6947
  -4.200   0.3174   0.01339   0.00725  -0.1274  0.3644  0.1356  -0.8365   0.0000   0.6583
  -4.000   0.3469   0.01342   0.00732  -0.1289  0.3571  0.1525  -0.8649   0.0000   0.6271
  -3.800   0.3767   0.01347   0.00739  -0.1304  0.3476  0.1722  -0.8937   0.0000   0.6007
  -3.600   0.4072   0.01352   0.00747  -0.1321  0.3401  0.1952  -0.9231   0.0000   0.5779
  -3.400   0.4424   0.01357   0.00760  -0.1347  0.3301  0.2356  -0.9583   0.0000   0.5573
  -3.000   0.5255   0.01372   0.00803  -0.1427  0.3161  0.3584  -1.0393   0.0000   0.5228
  -2.800   0.5588   0.01381   0.00818  -0.1449  0.3118  0.3882  -1.0745   0.0000   0.5099
  -2.600   0.5926   0.01392   0.00836  -0.1472  0.3075  0.4183  -1.1103   0.0000   0.4985
  -2.400   0.6258   0.01405   0.00853  -0.1493  0.3024  0.4472  -1.1459   0.0000   0.4883
  -2.200   0.6553   0.01417   0.00866  -0.1507  0.2972  0.4641  -1.1790   0.0000   0.4793
  -2.000   0.6854   0.01430   0.00882  -0.1522  0.2935  0.4823  -1.2128   0.0000   0.4709
  -1.800   0.7155   0.01444   0.00898  -0.1537  0.2888  0.5003  -1.2474   0.0000   0.4633
  -1.600   0.7455   0.01459   0.00914  -0.1552  0.2834  0.5177  -1.2830   0.0000   0.4563
  -1.400   0.7765   0.01475   0.00932  -0.1569  0.2799  0.5365  -1.3208   0.0000   0.4498
  -1.200   0.8028   0.01488   0.00945  -0.1576  0.2764  0.5464  -1.3556   0.0000   0.4437
  -1.000   0.8295   0.01502   0.00958  -0.1584  0.2728  0.5527  -1.3908   0.0000   0.4380
  -0.800   0.8549   0.01516   0.00971  -0.1589  0.2690  0.5590  -1.4252   0.0000   0.4327
  -0.600   0.8791   0.01528   0.00982  -0.1592  0.2659  0.5640  -1.4587   0.0000   0.4276
  -0.400   0.9054   0.01542   0.00996  -0.1599  0.2634  0.5698  -1.4943   0.0000   0.4228
  -0.200   0.9308   0.01556   0.01010  -0.1604  0.2599  0.5760  -1.5305   0.0000   0.4182
   0.000   0.9547   0.01570   0.01022  -0.1607  0.2562  0.5812  -1.5659   0.0000   0.4139
   0.200   0.9805   0.01587   0.01037  -0.1612  0.2524  0.5868  -1.6032   0.0000   0.4098
   0.400   1.0056   0.01601   0.01052  -0.1617  0.2501  0.5924  -1.6401   0.0000   0.4058
   0.600   1.0295   0.01615   0.01065  -0.1619  0.2475  0.5972  -1.6762   0.0000   0.4021
   0.800   1.0537   0.01631   0.01080  -0.1622  0.2441  0.6016  -1.7127   0.0000   0.3984
   1.000   1.0788   0.01649   0.01096  -0.1627  0.2400  0.6070  -1.7514   0.0000   0.3950
   1.200   1.1029   0.01666   0.01112  -0.1630  0.2364  0.6125  -1.7908   0.0000   0.3917
   1.600   1.1524   0.01700   0.01147  -0.1638  0.2315  0.6238  -1.8732   0.0000   0.3855
   1.800   1.1767   0.01718   0.01165  -0.1641  0.2287  0.6301  -1.9143   0.0000   0.3825
   2.000   1.1994   0.01737   0.01181  -0.1641  0.2255  0.6348  -1.9540   0.0000   0.3796
   2.200   1.2245   0.01758   0.01202  -0.1646  0.2222  0.6402  -1.9964   0.0000   0.3769
   2.400   1.2484   0.01776   0.01221  -0.1648  0.2201  0.6453  -2.0387   0.0000   0.3743
   2.600   1.2711   0.01794   0.01239  -0.1648  0.2175  0.6496  -2.0809   0.0000   0.3716
   2.800   1.2934   0.01814   0.01258  -0.1647  0.2145  0.6536  -2.1229   0.0000   0.3691
   3.000   1.3176   0.01838   0.01281  -0.1650  0.2107  0.6589  -2.1671   0.0000   0.3667
   3.200   1.3407   0.01859   0.01303  -0.1651  0.2079  0.6645  -2.2110   0.0000   0.3643
   3.400   1.3628   0.01880   0.01323  -0.1650  0.2057  0.6693  -2.2553   0.0000   0.3619
   3.600   1.3862   0.01904   0.01347  -0.1651  0.2029  0.6742  -2.3014   0.0000   0.3597
   3.800   1.4087   0.01929   0.01372  -0.1651  0.1996  0.6790  -2.3478   0.0000   0.3575
   4.000   1.4300   0.01955   0.01397  -0.1649  0.1960  0.6836  -2.3956   0.0000   0.3553
   4.200   1.4510   0.01977   0.01419  -0.1646  0.1941  0.6874  -2.4435   0.0000   0.3531
   4.400   1.4736   0.02002   0.01446  -0.1646  0.1918  0.6916  -2.4938   0.0000   0.3511
   4.600   1.4953   0.02029   0.01472  -0.1644  0.1892  0.6958  -2.5433   0.0000   0.3490
   4.800   1.5158   0.02056   0.01499  -0.1640  0.1860  0.6995  -2.5915   0.0000   0.3470
   5.000   1.5357   0.02085   0.01526  -0.1635  0.1823  0.7031  -2.6391   0.0000   0.3450
   5.200   1.5561   0.02110   0.01552  -0.1631  0.1800  0.7064  -2.6877   0.0000   0.3430
   5.400   1.5775   0.02141   0.01583  -0.1629  0.1765  0.7108  -2.7410   0.0000   0.3411
   5.600   1.5974   0.02174   0.01614  -0.1624  0.1728  0.7152  -2.7958   0.0000   0.3392
   5.800   1.6170   0.02204   0.01644  -0.1619  0.1698  0.7190  -2.8503   0.0000   0.3374
   6.000   1.6366   0.02231   0.01672  -0.1614  0.1682  0.7221  -2.9054   0.0000   0.3355
   6.200   1.6565   0.02261   0.01703  -0.1609  0.1661  0.7254  -2.9612   0.0000   0.3337
   6.400   1.6758   0.02295   0.01737  -0.1603  0.1629  0.7290  -3.0165   0.0000   0.3319
   6.600   1.6937   0.02334   0.01774  -0.1595  0.1585  0.7324  -3.0699   0.0000   0.3301
   6.800   1.7122   0.02367   0.01808  -0.1588  0.1557  0.7357  -3.1246   0.0000   0.3284
   7.000   1.7295   0.02405   0.01846  -0.1579  0.1523  0.7386  -3.1845   0.0000   0.3266
   7.200   1.7457   0.02449   0.01888  -0.1568  0.1489  0.7409  -3.2451   0.0000   0.3248
   7.400   1.7627   0.02490   0.01930  -0.1559  0.1458  0.7439  -3.3073   0.0000   0.3230
   7.600   1.7797   0.02530   0.01971  -0.1549  0.1430  0.7468  -3.3701   0.0000   0.3213
   7.800   1.7957   0.02575   0.02015  -0.1538  0.1393  0.7497  -3.4315   0.0000   0.3196
   8.000   1.8108   0.02625   0.02063  -0.1526  0.1352  0.7525  -3.4988   0.0000   0.3178
   8.200   1.8273   0.02666   0.02106  -0.1516  0.1326  0.7550  -3.5688   0.0000   0.3162
   8.400   1.8426   0.02715   0.02154  -0.1505  0.1291  0.7572  -3.6373   0.0000   0.3145
   8.600   1.8566   0.02771   0.02209  -0.1491  0.1258  0.7594  -3.7035   0.0000   0.3128
   8.800   1.8709   0.02822   0.02262  -0.1478  0.1234  0.7620  -3.7745   0.0000   0.3111
   9.000   1.8844   0.02878   0.02319  -0.1463  0.1200  0.7644  -3.8481   0.0000   0.3094
   9.200   1.8961   0.02947   0.02386  -0.1447  0.1154  0.7669  -3.9182   0.0000   0.3077
   9.400   1.9100   0.03003   0.02442  -0.1434  0.1126  0.7692  -3.9938   0.0000   0.3060
   9.600   1.9232   0.03064   0.02504  -0.1420  0.1095  0.7714  -4.0713   0.0000   0.3044
   9.800   1.9338   0.03141   0.02580  -0.1402  0.1061  0.7732  -4.1455   0.0000   0.3027
  10.000   1.9461   0.03208   0.02648  -0.1387  0.1036  0.7749  -4.2242   0.0000   0.3011
  10.200   1.9569   0.03282   0.02722  -0.1370  0.1001  0.7768  -4.2997   0.0000   0.2994
  10.400   1.9657   0.03368   0.02808  -0.1351  0.0964  0.7788  -4.3723   0.0000   0.2977
  10.600   1.9757   0.03445   0.02887  -0.1333  0.0940  0.7808  -4.4494   0.0000   0.2961
  10.800   1.9847   0.03531   0.02974  -0.1315  0.0911  0.7826  -4.5247   0.0000   0.2945
  11.000   1.9927   0.03627   0.03071  -0.1296  0.0880  0.7845  -4.5977   0.0000   0.2928
  11.200   2.0018   0.03717   0.03163  -0.1279  0.0858  0.7863  -4.6739   0.0000   0.2913
  11.400   2.0098   0.03820   0.03266  -0.1261  0.0829  0.7881  -4.7502   0.0000   0.2897
  11.600   2.0158   0.03938   0.03386  -0.1241  0.0800  0.7896  -4.8242   0.0000   0.2881
  11.800   2.0242   0.04043   0.03492  -0.1225  0.0778  0.7910  -4.9076   0.0000   0.2866
  12.000   2.0298   0.04174   0.03624  -0.1206  0.0749  0.7922  -4.9836   0.0000   0.2851
  12.200   2.0331   0.04310   0.03762  -0.1186  0.0723  0.7938  -5.0534   0.0000   0.2835
  12.400   2.0374   0.04441   0.03897  -0.1167  0.0699  0.7954  -5.1262   0.0000   0.2820
  12.600   2.0396   0.04595   0.04053  -0.1147  0.0675  0.7968  -5.1930   0.0000   0.2805
  12.800   2.0427   0.04746   0.04206  -0.1129  0.0655  0.7983  -5.2626   0.0000   0.2791
  13.000   2.0461   0.04899   0.04363  -0.1113  0.0637  0.7998  -5.3333   0.0000   0.2777
  13.200   2.0476   0.05075   0.04542  -0.1096  0.0617  0.8012  -5.3985   0.0000   0.2764
  13.400   2.0480   0.05268   0.04739  -0.1080  0.0598  0.8026  -5.4602   0.0000   0.2751
  13.600   2.0509   0.05443   0.04917  -0.1067  0.0583  0.8039  -5.5295   0.0000   0.2739
  13.800   2.0514   0.05648   0.05126  -0.1054  0.0563  0.8050  -5.5915   0.0000   0.2728
  14.000   2.0492   0.05886   0.05367  -0.1041  0.0544  0.8060  -5.6450   0.0000   0.2717
  14.200   2.0495   0.06105   0.05591  -0.1032  0.0529  0.8069  -5.7081   0.0000   0.2707
  14.400   2.0487   0.06342   0.05832  -0.1023  0.0515  0.8078  -5.7679   0.0000   0.2697
  14.600   2.0460   0.06606   0.06100  -0.1015  0.0501  0.8085  -5.8212   0.0000   0.2689
  14.800   2.0410   0.06885   0.06384  -0.1007  0.0488  0.8095  -5.8661   0.0000   0.2680
  15.000   2.0378   0.07139   0.06645  -0.1000  0.0479  0.8106  -5.9168   0.0000   0.2672
  15.200   2.0332   0.07414   0.06926  -0.0994  0.0469  0.8115  -5.9625   0.0000   0.2665
  15.400   2.0269   0.07717   0.07236  -0.0990  0.0458  0.8124  -6.0014   0.0000   0.2659
  15.600   2.0184   0.08055   0.07579  -0.0988  0.0447  0.8131  -6.0322   0.0000   0.2654
  15.800   2.0095   0.08405   0.07937  -0.0989  0.0437  0.8138  -6.0602   0.0000   0.2651
  16.000   2.0027   0.08732   0.08270  -0.0990  0.0429  0.8146  -6.0949   0.0000   0.2647
  16.200   1.9944   0.09082   0.08627  -0.0994  0.0420  0.8154  -6.1235   0.0000   0.2645
  16.400   1.9845   0.09458   0.09011  -0.1000  0.0411  0.8161  -6.1447   0.0000   0.2644
  16.600   1.9730   0.09858   0.09418  -0.1008  0.0402  0.8168  -6.1621   0.0000   0.2645
  16.800   1.9611   0.10271   0.09838  -0.1019  0.0393  0.8175  -6.1775   0.0000   0.2647
  17.000   1.9521   0.10649   0.10224  -0.1030  0.0387  0.8182  -6.2030   0.0000   0.2649
  17.200   1.9424   0.11040   0.10622  -0.1043  0.0380  0.8189  -6.2246   0.0000   0.2652
  17.400   1.9321   0.11443   0.11032  -0.1058  0.0373  0.8195  -6.2420   0.0000   0.2656
  17.600   1.9207   0.11864   0.11461  -0.1076  0.0366  0.8201  -6.2527   0.0000   0.2662
  17.800   1.9082   0.12300   0.11904  -0.1096  0.0359  0.8207  -6.2573   0.0000   0.2669
  18.000   1.8959   0.12740   0.12351  -0.1118  0.0352  0.8212  -6.2600   0.0000   0.2678
  18.200   1.8863   0.13141   0.12759  -0.1139  0.0346  0.8219  -6.2738   0.0000   0.2685
  18.400   1.8764   0.13550   0.13175  -0.1162  0.0340  0.8225  -6.2844   0.0000   0.2693
  18.600   1.8663   0.13964   0.13595  -0.1186  0.0334  0.8231  -6.2923   0.0000   0.2703
  18.800   1.8565   0.14377   0.14014  -0.1211  0.0328  0.8237  -6.2994   0.0000   0.2713
  19.000   1.8475   0.14776   0.14418  -0.1237  0.0321  0.8242  -6.3094   0.0000   0.2723
  19.200   1.8373   0.15196   0.14844  -0.1266  0.0314  0.8247  -6.3115   0.0000   0.2735
  19.400   1.8284   0.15571   0.15226  -0.1290  0.0310  0.8253  -6.3193   0.0000   0.2745
  19.600   1.8225   0.15888   0.15548  -0.1311  0.0304  0.8260  -6.3424   0.0000   0.2752
  19.800   1.8131   0.16266   0.15933  -0.1337  0.0298  0.8267  -6.3454   0.0000   0.2763
  20.000   1.8065   0.16596   0.16268  -0.1360  0.0292  0.8273  -6.3623   0.0000   0.2772
  20.200   1.7973   0.16974   0.16651  -0.1388  0.0286  0.8279  -6.3632   0.0000   0.2784
  20.400   1.7892   0.17331   0.17012  -0.1415  0.0279  0.8286  -6.3693   0.0000   0.2795
  20.600   1.7837   0.17646   0.17332  -0.1439  0.0274  0.8293  -6.3878   0.0000   0.2804
  20.800   1.7804   0.17924   0.17615  -0.1460  0.0269  0.8301  -6.4181   0.0000   0.2810
  21.000   1.7730   0.18276   0.17972  -0.1488  0.0263  0.8309  -6.4236   0.0000   0.2822
  21.200   1.7696   0.18560   0.18259  -0.1511  0.0257  0.8316  -6.4514   0.0000   0.2830
  21.400   1.7621   0.18923   0.18627  -0.1542  0.0251  0.8323  -6.4527   0.0000   0.2844
  21.600   1.7591   0.19211   0.18919  -0.1567  0.0246  0.8331  -6.4795   0.0000   0.2852
  21.800   1.7566   0.19493   0.19204  -0.1592  0.0242  0.8338  -6.5083   0.0000   0.2860
  22.000   1.7528   0.19796   0.19513  -0.1619  0.0237  0.8344  -6.5286   0.0000   0.2870
  22.200   1.7516   0.20057   0.19776  -0.1643  0.0233  0.8351  -6.5639   0.0000   0.2877
  22.400   1.7471   0.20377   0.20101  -0.1673  0.0228  0.8358  -6.5772   0.0000   0.2889
  22.600   1.7445   0.20665   0.20392  -0.1701  0.0223  0.8364  -6.6012   0.0000   0.2899
  22.800   1.7430   0.20933   0.20663  -0.1726  0.0218  0.8371  -6.6320   0.0000   0.2907
  23.000   1.7393   0.21244   0.20978  -0.1757  0.0215  0.8378  -6.6461   0.0000   0.2919
  23.200   1.7389   0.21496   0.21233  -0.1782  0.0211  0.8385  -6.6830   0.0000   0.2926
  23.400   1.7393   0.21732   0.21472  -0.1806  0.0207  0.8391  -6.7265   0.0000   0.2932
  23.600   1.7358   0.22042   0.21786  -0.1838  0.0203  0.8396  -6.7412   0.0000   0.2944
  23.800   1.7343   0.22303   0.22050  -0.1865  0.0199  0.8401  -6.7711   0.0000   0.2953
  24.000   1.7327   0.22534   0.22284  -0.1888  0.0195  0.8408  -6.8025   0.0000   0.2959
  24.200   1.7275   0.22837   0.22591  -0.1919  0.0191  0.8414  -6.8057   0.0000   0.2972
  24.400   1.7260   0.23067   0.22824  -0.1942  0.0188  0.8420  -6.8359   0.0000   0.2979
  24.600   1.7259   0.23267   0.23028  -0.1962  0.0185  0.8425  -6.8769   0.0000   0.2983
  24.800   1.7248   0.23486   0.23250  -0.1985  0.0182  0.8431  -6.9097   0.0000   0.2989
  25.000   1.7205   0.23767   0.23536  -0.2014  0.0179  0.8437  -6.9161   0.0000   0.3001


