xflr5 v6.47

 Calculated polar for: NACA24018_theta30_Ku4.5_Kl0.5_d0.14_delta3.44

 1 1 Reynolds number fixed          Mach number fixed         

 xtrf =   1.000 (top)        1.000 (bottom)
 Mach =   0.000     Re =     2.400 e 6     Ncrit =   5.000

  alpha     CL        CD       CDp       Cm    Top Xtr Bot Xtr   Cpmin    Chinge    XCp    
 ------- -------- --------- --------- -------- ------- ------- -------- --------- ---------
 -14.600  -0.9966   0.02343   0.01882  -0.0866  0.9298  0.0257  -6.5010   0.0000   0.1409
 -14.400  -0.9796   0.02288   0.01825  -0.0865  0.9287  0.0260  -6.3660   0.0000   0.1398
 -14.200  -0.9588   0.02240   0.01776  -0.0869  0.9281  0.0263  -6.2179   0.0000   0.1376
 -14.000  -0.9363   0.02196   0.01731  -0.0876  0.9276  0.0266  -6.0654   0.0000   0.1349
 -13.800  -0.9122   0.02153   0.01687  -0.0885  0.9272  0.0269  -5.9124   0.0000   0.1315
 -13.600  -0.8862   0.02107   0.01641  -0.0898  0.9269  0.0275  -5.7571   0.0000   0.1274
 -13.400  -0.8833   0.02053   0.01586  -0.0869  0.9229  0.0278  -5.6791   0.0000   0.1307
 -13.200  -0.8614   0.02010   0.01543  -0.0874  0.9219  0.0282  -5.5387   0.0000   0.1278
 -13.000  -0.8377   0.01971   0.01505  -0.0881  0.9213  0.0287  -5.3937   0.0000   0.1242
 -12.800  -0.8129   0.01935   0.01469  -0.0890  0.9208  0.0291  -5.2466   0.0000   0.1200
 -12.600  -0.7870   0.01901   0.01435  -0.0901  0.9203  0.0295  -5.0972   0.0000   0.1150
 -12.400  -0.7599   0.01867   0.01401  -0.0913  0.9200  0.0299  -4.9509   0.0000   0.1093
 -12.200  -0.7321   0.01834   0.01368  -0.0926  0.9196  0.0303  -4.8049   0.0000   0.1029
 -12.000  -0.7035   0.01798   0.01332  -0.0942  0.9194  0.0310  -4.6583   0.0000   0.0955
 -11.600  -0.6710   0.01753   0.01289  -0.0926  0.9155  0.0321  -4.4411   0.0000   0.0916
 -11.400  -0.6471   0.01727   0.01264  -0.0932  0.9141  0.0327  -4.3117   0.0000   0.0856
 -11.200  -0.6210   0.01701   0.01238  -0.0941  0.9130  0.0333  -4.1775   0.0000   0.0779
 -10.600  -0.5854   0.01705   0.01245  -0.0893  0.8906  0.0349  -3.9014   0.0000   0.0775
 -10.400  -0.5557   0.01676   0.01216  -0.0908  0.8790  0.0358  -3.7621   0.0000   0.0663
 -10.200  -0.5145   0.01617   0.01157  -0.0943  0.8732  0.0368  -3.5940   0.0000   0.0458
 -10.000  -0.4645   0.01535   0.01073  -0.0994  0.8651  0.0377  -3.4061   0.0000   0.0140
  -9.800  -0.3933   0.01395   0.00923  -0.1086  0.8410  0.0398  -3.1696   0.0000  -0.0507
  -9.600  -0.3681   0.01366   0.00874  -0.1093  0.7907  0.0408  -3.0543   0.0000  -0.0722
  -9.400  -0.3502   0.01365   0.00862  -0.1086  0.7600  0.0416  -2.9605   0.0000  -0.0857
  -9.200  -0.3293   0.01362   0.00851  -0.1085  0.7372  0.0424  -2.8606   0.0000  -0.1056
  -9.000  -0.3073   0.01357   0.00840  -0.1086  0.7155  0.0436  -2.7591   0.0000  -0.1305
  -8.800  -0.2844   0.01353   0.00828  -0.1088  0.6936  0.0448  -2.6571   0.0000  -0.1609
  -8.600  -0.2609   0.01348   0.00817  -0.1092  0.6715  0.0460  -2.5583   0.0000  -0.1980
  -8.400  -0.2366   0.01344   0.00806  -0.1097  0.6510  0.0473  -2.4601   0.0000  -0.2449
  -8.200  -0.2113   0.01337   0.00795  -0.1104  0.6332  0.0490  -2.3609   0.0000  -0.3063
  -8.000  -0.1859   0.01333   0.00785  -0.1111  0.6144  0.0505  -2.2631   0.0000  -0.3844
  -7.800  -0.1604   0.01328   0.00774  -0.1118  0.5950  0.0517  -2.1664   0.0000  -0.4878
  -7.600  -0.1338   0.01323   0.00764  -0.1127  0.5769  0.0538  -2.0690   0.0000  -0.6391
  -7.400  -0.1072   0.01318   0.00754  -0.1136  0.5603  0.0559  -1.9728   0.0000  -0.8661
  -7.200  -0.0805   0.01314   0.00745  -0.1145  0.5431  0.0579  -1.8801   0.0000  -1.2454
  -7.000  -0.0535   0.01310   0.00737  -0.1155  0.5261  0.0603  -1.7905   0.0000  -2.0111
  -6.800  -0.0273   0.01309   0.00730  -0.1163  0.5109  0.0625  -1.7035   0.0000  -4.1960
  -6.600  -0.0005   0.01307   0.00726  -0.1173  0.4980  0.0654  -1.6167   0.0000  -225.7686
  -6.400   0.0260   0.01306   0.00722  -0.1181  0.4846  0.0681  -1.5318   0.0000   4.9842
  -6.200   0.0525   0.01306   0.00719  -0.1190  0.4722  0.0710  -1.4508   0.0000   2.6004
  -6.000   0.0792   0.01307   0.00716  -0.1199  0.4588  0.0744  -1.3720   0.0000   1.8169
  -5.800   0.1056   0.01308   0.00713  -0.1207  0.4436  0.0776  -1.2954   0.0000   1.4314
  -5.600   0.1325   0.01310   0.00711  -0.1217  0.4272  0.0823  -1.2223   0.0000   1.1968
  -5.400   0.1596   0.01311   0.00709  -0.1226  0.4128  0.0878  -1.1501   0.0000   1.0408
  -5.200   0.1861   0.01314   0.00709  -0.1235  0.4015  0.0924  -1.0797   0.0000   0.9314
  -5.000   0.2133   0.01316   0.00710  -0.1245  0.3924  0.0982  -1.0095   0.0000   0.8480
  -4.800   0.2401   0.01319   0.00711  -0.1253  0.3824  0.1038  -0.9412   0.0000   0.7841
  -4.600   0.2674   0.01322   0.00714  -0.1263  0.3745  0.1116  -0.8742   0.0000   0.7323
  -4.400   0.2952   0.01326   0.00717  -0.1274  0.3651  0.1211  -0.8131   0.0000   0.6899
  -4.200   0.3233   0.01329   0.00722  -0.1286  0.3581  0.1324  -0.8404   0.0000   0.6545
  -4.000   0.3520   0.01334   0.00727  -0.1299  0.3491  0.1468  -0.8683   0.0000   0.6245
  -3.800   0.3813   0.01338   0.00734  -0.1313  0.3417  0.1647  -0.8968   0.0000   0.5988
  -3.400   0.4443   0.01348   0.00753  -0.1351  0.3254  0.2164  -0.9597   0.0000   0.5567
  -3.000   0.5286   0.01362   0.00796  -0.1433  0.3122  0.3425  -1.0416   0.0000   0.5223
  -2.800   0.5621   0.01371   0.00812  -0.1455  0.3081  0.3744  -1.0770   0.0000   0.5095
  -2.600   0.5956   0.01382   0.00828  -0.1477  0.3031  0.4044  -1.1126   0.0000   0.4982
  -2.400   0.6301   0.01395   0.00847  -0.1502  0.2975  0.4374  -1.1491   0.0000   0.4880
  -2.200   0.6600   0.01407   0.00862  -0.1516  0.2941  0.4560  -1.1826   0.0000   0.4790
  -2.000   0.6897   0.01420   0.00877  -0.1531  0.2894  0.4740  -1.2162   0.0000   0.4708
  -1.800   0.7195   0.01434   0.00892  -0.1545  0.2839  0.4922  -1.2506   0.0000   0.4632
  -1.600   0.7494   0.01448   0.00908  -0.1559  0.2803  0.5094  -1.2861   0.0000   0.4562
  -1.400   0.7799   0.01463   0.00926  -0.1575  0.2767  0.5284  -1.3236   0.0000   0.4497
  -1.200   0.8091   0.01478   0.00942  -0.1588  0.2727  0.5420  -1.3608   0.0000   0.4437
  -1.000   0.8335   0.01491   0.00952  -0.1592  0.2689  0.5472  -1.3942   0.0000   0.4380
  -0.800   0.8603   0.01505   0.00966  -0.1600  0.2658  0.5538  -1.4298   0.0000   0.4327
  -0.600   0.8856   0.01517   0.00978  -0.1605  0.2635  0.5599  -1.4643   0.0000   0.4277
  -0.400   0.9095   0.01529   0.00990  -0.1607  0.2602  0.5644  -1.4979   0.0000   0.4229
  -0.200   0.9359   0.01545   0.01004  -0.1614  0.2562  0.5706  -1.5350   0.0000   0.4184
   0.000   0.9609   0.01560   0.01017  -0.1619  0.2522  0.5768  -1.5714   0.0000   0.4141
   0.200   0.9848   0.01573   0.01030  -0.1621  0.2502  0.5816  -1.6071   0.0000   0.4099
   0.400   1.0107   0.01588   0.01045  -0.1627  0.2476  0.5873  -1.6448   0.0000   0.4060
   0.600   1.0354   0.01603   0.01060  -0.1631  0.2442  0.5926  -1.6817   0.0000   0.4023
   0.800   1.0589   0.01619   0.01073  -0.1633  0.2402  0.5973  -1.7176   0.0000   0.3986
   1.000   1.0830   0.01635   0.01088  -0.1635  0.2365  0.6017  -1.7553   0.0000   0.3952
   1.200   1.1084   0.01651   0.01105  -0.1640  0.2343  0.6073  -1.7962   0.0000   0.3919
   1.400   1.1325   0.01667   0.01121  -0.1643  0.2315  0.6129  -1.8367   0.0000   0.3887
   1.600   1.1559   0.01684   0.01136  -0.1644  0.2287  0.6178  -1.8767   0.0000   0.3856
   1.800   1.1817   0.01705   0.01156  -0.1651  0.2254  0.6245  -1.9194   0.0000   0.3828
   2.000   1.2057   0.01723   0.01174  -0.1653  0.2222  0.6306  -1.9604   0.0000   0.3799
   2.400   1.2536   0.01759   0.01211  -0.1658  0.2175  0.6403  -2.0442   0.0000   0.3745
   2.600   1.2771   0.01779   0.01230  -0.1660  0.2144  0.6452  -2.0874   0.0000   0.3719
   2.800   1.2993   0.01799   0.01249  -0.1659  0.2108  0.6495  -2.1293   0.0000   0.3694
   3.000   1.3218   0.01819   0.01267  -0.1658  0.2080  0.6535  -2.1717   0.0000   0.3669
   3.200   1.3464   0.01840   0.01290  -0.1662  0.2057  0.6592  -2.2174   0.0000   0.3646
   3.400   1.3695   0.01862   0.01312  -0.1663  0.2029  0.6649  -2.2630   0.0000   0.3623
   3.600   1.3910   0.01885   0.01333  -0.1661  0.1997  0.6694  -2.3069   0.0000   0.3600
   3.800   1.4139   0.01911   0.01358  -0.1661  0.1959  0.6741  -2.3538   0.0000   0.3578
   4.000   1.4369   0.01934   0.01383  -0.1662  0.1941  0.6791  -2.4041   0.0000   0.3556
   4.200   1.4586   0.01957   0.01406  -0.1660  0.1919  0.6837  -2.4530   0.0000   0.3535
   4.400   1.4791   0.01981   0.01430  -0.1656  0.1891  0.6873  -2.5008   0.0000   0.3514
   4.600   1.5010   0.02009   0.01457  -0.1655  0.1860  0.6914  -2.5505   0.0000   0.3493
   4.800   1.5223   0.02038   0.01485  -0.1652  0.1823  0.6953  -2.5997   0.0000   0.3473
   5.000   1.5432   0.02063   0.01511  -0.1649  0.1801  0.6992  -2.6488   0.0000   0.3454
   5.200   1.5633   0.02091   0.01538  -0.1645  0.1768  0.7029  -2.6971   0.0000   0.3434
   5.400   1.5826   0.02121   0.01566  -0.1639  0.1729  0.7061  -2.7482   0.0000   0.3414
   5.600   1.6039   0.02153   0.01598  -0.1637  0.1696  0.7107  -2.8051   0.0000   0.3396
   5.800   1.6249   0.02181   0.01627  -0.1634  0.1681  0.7150  -2.8618   0.0000   0.3378
   6.000   1.6448   0.02209   0.01656  -0.1629  0.1659  0.7187  -2.9172   0.0000   0.3359
   6.200   1.6636   0.02239   0.01686  -0.1622  0.1631  0.7218  -2.9716   0.0000   0.3341
   6.400   1.6820   0.02277   0.01722  -0.1615  0.1588  0.7249  -3.0255   0.0000   0.3323
   6.600   1.7017   0.02310   0.01756  -0.1610  0.1559  0.7285  -3.0817   0.0000   0.3305
   6.800   1.7203   0.02346   0.01791  -0.1603  0.1523  0.7320  -3.1367   0.0000   0.3288
   7.000   1.7376   0.02386   0.01830  -0.1594  0.1485  0.7353  -3.1979   0.0000   0.3270
   7.200   1.7547   0.02424   0.01868  -0.1584  0.1457  0.7382  -3.2601   0.0000   0.3252
   7.400   1.7715   0.02463   0.01907  -0.1574  0.1430  0.7404  -3.3222   0.0000   0.3235
   7.600   1.7878   0.02508   0.01952  -0.1564  0.1392  0.7432  -3.3839   0.0000   0.3217
   7.800   1.8036   0.02557   0.01999  -0.1553  0.1352  0.7461  -3.4463   0.0000   0.3200
   8.000   1.8203   0.02598   0.02041  -0.1543  0.1325  0.7491  -3.5166   0.0000   0.3183
   8.200   1.8358   0.02645   0.02088  -0.1531  0.1289  0.7519  -3.5851   0.0000   0.3166
   8.400   1.8506   0.02697   0.02138  -0.1519  0.1253  0.7544  -3.6525   0.0000   0.3149
   8.600   1.8666   0.02740   0.02182  -0.1508  0.1232  0.7567  -3.7229   0.0000   0.3133
   8.800   1.8807   0.02794   0.02237  -0.1495  0.1198  0.7587  -3.7950   0.0000   0.3116
   9.000   1.8924   0.02863   0.02304  -0.1478  0.1152  0.7612  -3.8651   0.0000   0.3098
   9.200   1.9065   0.02918   0.02360  -0.1464  0.1123  0.7637  -3.9405   0.0000   0.3082
   9.400   1.9195   0.02979   0.02421  -0.1450  0.1090  0.7662  -4.0143   0.0000   0.3065
   9.600   1.9316   0.03046   0.02487  -0.1434  0.1055  0.7685  -4.0908   0.0000   0.3048
   9.800   1.9447   0.03106   0.02548  -0.1420  0.1032  0.7707  -4.1709   0.0000   0.3032
  10.000   1.9552   0.03183   0.02625  -0.1402  0.0996  0.7726  -4.2456   0.0000   0.3015
  10.200   1.9654   0.03264   0.02705  -0.1384  0.0960  0.7742  -4.3199   0.0000   0.2998
  10.400   1.9773   0.03334   0.02776  -0.1369  0.0933  0.7759  -4.4007   0.0000   0.2983
  10.600   1.9862   0.03420   0.02863  -0.1350  0.0903  0.7779  -4.4756   0.0000   0.2966
  10.800   1.9949   0.03508   0.02952  -0.1331  0.0876  0.7798  -4.5501   0.0000   0.2949
  11.000   2.0049   0.03589   0.03035  -0.1314  0.0851  0.7817  -4.6284   0.0000   0.2934
  11.200   2.0120   0.03691   0.03138  -0.1294  0.0821  0.7836  -4.6998   0.0000   0.2917
  11.400   2.0196   0.03793   0.03241  -0.1275  0.0795  0.7855  -4.7765   0.0000   0.2901
  11.600   2.0279   0.03892   0.03342  -0.1258  0.0770  0.7872  -4.8579   0.0000   0.2886
  11.800   2.0329   0.04018   0.03468  -0.1238  0.0740  0.7888  -4.9325   0.0000   0.2870
  12.000   2.0392   0.04138   0.03590  -0.1219  0.0715  0.7902  -5.0107   0.0000   0.2854
  12.200   2.0447   0.04270   0.03723  -0.1201  0.0689  0.7915  -5.0871   0.0000   0.2839
  12.400   2.0479   0.04420   0.03874  -0.1181  0.0663  0.7927  -5.1570   0.0000   0.2824
  12.600   2.0529   0.04549   0.04007  -0.1164  0.0647  0.7943  -5.2325   0.0000   0.2810
  12.800   2.0563   0.04697   0.04158  -0.1146  0.0627  0.7958  -5.3033   0.0000   0.2795
  13.000   2.0575   0.04868   0.04331  -0.1127  0.0606  0.7973  -5.3677   0.0000   0.2781
  13.200   2.0606   0.05026   0.04493  -0.1111  0.0590  0.7988  -5.4378   0.0000   0.2768
  13.400   2.0630   0.05196   0.04667  -0.1096  0.0572  0.8003  -5.5060   0.0000   0.2755
  13.600   2.0624   0.05399   0.04873  -0.1080  0.0551  0.8016  -5.5652   0.0000   0.2742
  13.800   2.0624   0.05603   0.05081  -0.1066  0.0534  0.8028  -5.6259   0.0000   0.2730
  14.000   2.0630   0.05807   0.05289  -0.1053  0.0520  0.8040  -5.6893   0.0000   0.2719
  14.200   2.0621   0.06034   0.05520  -0.1042  0.0505  0.8050  -5.7492   0.0000   0.2709
  14.400   2.0593   0.06286   0.05776  -0.1031  0.0491  0.8059  -5.8030   0.0000   0.2699
  14.600   2.0587   0.06521   0.06016  -0.1023  0.0480  0.8069  -5.8635   0.0000   0.2690
  14.800   2.0574   0.06770   0.06270  -0.1016  0.0469  0.8078  -5.9213   0.0000   0.2681
  15.000   2.0540   0.07047   0.06552  -0.1011  0.0458  0.8085  -5.9720   0.0000   0.2674
  15.200   2.0477   0.07353   0.06863  -0.1005  0.0446  0.8093  -6.0123   0.0000   0.2667
  15.400   2.0414   0.07655   0.07172  -0.1001  0.0436  0.8102  -6.0517   0.0000   0.2661
  15.600   2.0361   0.07950   0.07474  -0.0998  0.0427  0.8111  -6.0943   0.0000   0.2655
  15.800   2.0292   0.08272   0.07802  -0.0997  0.0417  0.8119  -6.1304   0.0000   0.2650
  16.000   2.0206   0.08621   0.08157  -0.0999  0.0407  0.8126  -6.1593   0.0000   0.2647
  16.200   2.0100   0.08999   0.08543  -0.1002  0.0398  0.8133  -6.1801   0.0000   0.2645
  16.400   2.0004   0.09370   0.08920  -0.1007  0.0390  0.8141  -6.2059   0.0000   0.2644
  16.600   1.9916   0.09730   0.09288  -0.1014  0.0383  0.8148  -6.2362   0.0000   0.2643
  16.800   1.9818   0.10111   0.09676  -0.1022  0.0376  0.8156  -6.2608   0.0000   0.2644
  17.000   1.9709   0.10510   0.10082  -0.1033  0.0369  0.8163  -6.2798   0.0000   0.2646
  17.200   1.9589   0.10927   0.10507  -0.1046  0.0362  0.8169  -6.2929   0.0000   0.2649
  17.400   1.9462   0.11358   0.10946  -0.1062  0.0354  0.8176  -6.3007   0.0000   0.2654
  17.600   1.9354   0.11766   0.11361  -0.1078  0.0349  0.8182  -6.3149   0.0000   0.2659
  17.800   1.9251   0.12167   0.11769  -0.1096  0.0343  0.8189  -6.3299   0.0000   0.2664
  18.000   1.9143   0.12577   0.12186  -0.1115  0.0337  0.8195  -6.3414   0.0000   0.2671
  18.200   1.9032   0.12997   0.12613  -0.1136  0.0331  0.8202  -6.3491   0.0000   0.2679
  18.400   1.8918   0.13423   0.13045  -0.1159  0.0325  0.8208  -6.3536   0.0000   0.2688
  18.600   1.8804   0.13850   0.13479  -0.1184  0.0318  0.8215  -6.3565   0.0000   0.2697
  18.800   1.8713   0.14244   0.13879  -0.1207  0.0312  0.8221  -6.3684   0.0000   0.2706
  19.000   1.8624   0.14639   0.14281  -0.1232  0.0307  0.8228  -6.3796   0.0000   0.2716
  19.200   1.8535   0.15034   0.14682  -0.1258  0.0302  0.8233  -6.3895   0.0000   0.2726
  19.400   1.8472   0.15387   0.15040  -0.1282  0.0296  0.8239  -6.4110   0.0000   0.2734
  19.600   1.8373   0.15797   0.15456  -0.1311  0.0290  0.8243  -6.4128   0.0000   0.2746
  19.800   1.8276   0.16206   0.15871  -0.1341  0.0283  0.8247  -6.4135   0.0000   0.2759
  20.000   1.8208   0.16543   0.16212  -0.1364  0.0277  0.8254  -6.4295   0.0000   0.2768
  20.200   1.8127   0.16903   0.16578  -0.1390  0.0273  0.8262  -6.4372   0.0000   0.2779
  20.400   1.8083   0.17198   0.16878  -0.1412  0.0267  0.8269  -6.4644   0.0000   0.2785
  20.600   1.8001   0.17559   0.17245  -0.1439  0.0262  0.8276  -6.4689   0.0000   0.2797
  20.800   1.7950   0.17866   0.17555  -0.1463  0.0256  0.8284  -6.4903   0.0000   0.2805
  21.000   1.7868   0.18229   0.17924  -0.1492  0.0250  0.8291  -6.4916   0.0000   0.2818
  21.200   1.7825   0.18524   0.18222  -0.1516  0.0245  0.8299  -6.5150   0.0000   0.2826
  21.400   1.7791   0.18807   0.18510  -0.1539  0.0241  0.8307  -6.5420   0.0000   0.2833
  21.600   1.7741   0.19120   0.18827  -0.1565  0.0237  0.8314  -6.5588   0.0000   0.2844
  21.800   1.7722   0.19381   0.19091  -0.1588  0.0233  0.8322  -6.5932   0.0000   0.2850
  22.000   1.7664   0.19715   0.19430  -0.1618  0.0228  0.8328  -6.6021   0.0000   0.2862
  22.200   1.7635   0.20000   0.19719  -0.1643  0.0223  0.8335  -6.6277   0.0000   0.2871
  22.400   1.7611   0.20276   0.19998  -0.1669  0.0219  0.8342  -6.6558   0.0000   0.2879
  22.600   1.7561   0.20602   0.20329  -0.1700  0.0215  0.8348  -6.6655   0.0000   0.2892
  22.800   1.7557   0.20843   0.20573  -0.1723  0.0212  0.8355  -6.7051   0.0000   0.2897
  23.000   1.7554   0.21084   0.20816  -0.1746  0.0208  0.8363  -6.7446   0.0000   0.2903
  23.200   1.7506   0.21408   0.21145  -0.1778  0.0204  0.8370  -6.7540   0.0000   0.2916
  23.400   1.7498   0.21658   0.21398  -0.1803  0.0200  0.8377  -6.7907   0.0000   0.2923
  23.600   1.7487   0.21915   0.21657  -0.1829  0.0196  0.8384  -6.8244   0.0000   0.2931
  23.800   1.7434   0.22249   0.21996  -0.1863  0.0192  0.8389  -6.8270   0.0000   0.2946
  24.000   1.7436   0.22482   0.22231  -0.1888  0.0189  0.8394  -6.8682   0.0000   0.2952
  24.200   1.7443   0.22703   0.22456  -0.1911  0.0186  0.8399  -6.9133   0.0000   0.2957
  24.400   1.7400   0.23002   0.22758  -0.1942  0.0183  0.8404  -6.9216   0.0000   0.2969
  24.600   1.7391   0.23221   0.22981  -0.1965  0.0179  0.8411  -6.9567   0.0000   0.2975
  24.800   1.7382   0.23437   0.23199  -0.1987  0.0176  0.8417  -6.9922   0.0000   0.2980
  25.000   1.7335   0.23730   0.23496  -0.2018  0.0172  0.8423  -6.9954   0.0000   0.2993


