xflr5 v6.47

 Calculated polar for: NACA24018_theta30_Ku4.5_Kl0.5_d0.00_delta0.00

 1 1 Reynolds number fixed          Mach number fixed         

 xtrf =   1.000 (top)        1.000 (bottom)
 Mach =   0.000     Re =     0.800 e 6     Ncrit =   5.000

  alpha     CL        CD       CDp       Cm    Top Xtr Bot Xtr   Cpmin    Chinge    XCp    
 ------- -------- --------- --------- -------- ------- ------- -------- --------- ---------
 -15.000  -1.1407   0.02821   0.02252  -0.0672  1.0000  0.0263  -7.1543   0.0000   0.1678
 -14.800  -1.1357   0.02728   0.02156  -0.0659  1.0000  0.0266  -7.0659   0.0000   0.1691
 -14.600  -1.1304   0.02640   0.02066  -0.0645  1.0000  0.0268  -6.9758   0.0000   0.1705
 -14.400  -1.1245   0.02562   0.01985  -0.0630  1.0000  0.0271  -6.8826   0.0000   0.1719
 -14.200  -1.1183   0.02489   0.01911  -0.0614  1.0000  0.0274  -6.7876   0.0000   0.1733
 -14.000  -1.1117   0.02423   0.01841  -0.0598  1.0000  0.0277  -6.6916   0.0000   0.1749
 -13.800  -1.1052   0.02361   0.01777  -0.0580  1.0000  0.0280  -6.5959   0.0000   0.1765
 -13.600  -1.0988   0.02303   0.01717  -0.0561  1.0000  0.0283  -6.5008   0.0000   0.1782
 -13.400  -1.0926   0.02249   0.01660  -0.0541  1.0000  0.0286  -6.4068   0.0000   0.1801
 -13.200  -1.0869   0.02198   0.01606  -0.0520  1.0000  0.0288  -6.3147   0.0000   0.1822
 -13.000  -1.0816   0.02151   0.01556  -0.0496  1.0000  0.0291  -6.2245   0.0000   0.1845
 -12.800  -1.0769   0.02107   0.01509  -0.0471  1.0000  0.0294  -6.1367   0.0000   0.1870
 -12.600  -1.0622   0.02060   0.01459  -0.0465  0.9994  0.0297  -6.0154   0.0000   0.1873
 -12.400  -1.0411   0.02003   0.01401  -0.0471  0.9979  0.0301  -5.8783   0.0000   0.1860
 -12.200  -1.0199   0.01950   0.01347  -0.0476  0.9959  0.0305  -5.7412   0.0000   0.1847
 -12.000  -0.9999   0.01902   0.01298  -0.0479  0.9936  0.0310  -5.6083   0.0000   0.1838
 -11.800  -0.9793   0.01857   0.01252  -0.0482  0.9912  0.0315  -5.4746   0.0000   0.1827
 -11.600  -0.9574   0.01815   0.01208  -0.0487  0.9890  0.0321  -5.3381   0.0000   0.1812
 -11.400  -0.9350   0.01775   0.01167  -0.0492  0.9871  0.0327  -5.2013   0.0000   0.1796
 -11.200  -0.9157   0.01737   0.01126  -0.0491  0.9831  0.0332  -5.0757   0.0000   0.1789
 -11.000  -0.8940   0.01696   0.01084  -0.0494  0.9802  0.0337  -4.9442   0.0000   0.1774
 -10.800  -0.8739   0.01655   0.01043  -0.0495  0.9767  0.0343  -4.8178   0.0000   0.1762
 -10.600  -0.8536   0.01618   0.01005  -0.0494  0.9725  0.0349  -4.6922   0.0000   0.1751
 -10.400  -0.8298   0.01581   0.00968  -0.0501  0.9697  0.0356  -4.5574   0.0000   0.1728
 -10.200  -0.8087   0.01548   0.00934  -0.0501  0.9646  0.0363  -4.4354   0.0000   0.1712
 -10.000  -0.7831   0.01515   0.00899  -0.0511  0.9610  0.0370  -4.3037   0.0000   0.1681
  -9.800  -0.7557   0.01480   0.00863  -0.0524  0.9575  0.0377  -4.1684   0.0000   0.1640
  -9.600  -0.7281   0.01443   0.00827  -0.0538  0.9521  0.0387  -4.0337   0.0000   0.1595
  -9.400  -0.6966   0.01408   0.00792  -0.0560  0.9476  0.0398  -3.8901   0.0000   0.1530
  -9.200  -0.6684   0.01378   0.00760  -0.0575  0.9401  0.0408  -3.7574   0.0000   0.1474
  -9.000  -0.6379   0.01348   0.00728  -0.0594  0.9326  0.0417  -3.6207   0.0000   0.1402
  -8.600  -0.5823   0.01289   0.00665  -0.0620  0.9089  0.0440  -3.3689   0.0000   0.1266
  -8.400  -0.5596   0.01268   0.00639  -0.0622  0.8910  0.0452  -3.2607   0.0000   0.1219
  -8.200  -0.5402   0.01252   0.00614  -0.0617  0.8705  0.0463  -3.1613   0.0000   0.1190
  -8.000  -0.5245   0.01237   0.00592  -0.0603  0.8497  0.0473  -3.0717   0.0000   0.1182
  -7.800  -0.5105   0.01223   0.00571  -0.0586  0.8290  0.0485  -2.9867   0.0000   0.1186
  -7.600  -0.4969   0.01212   0.00552  -0.0568  0.8101  0.0496  -2.9034   0.0000   0.1192
  -7.400  -0.4833   0.01202   0.00534  -0.0550  0.7928  0.0509  -2.8207   0.0000   0.1199
  -7.200  -0.4695   0.01192   0.00518  -0.0532  0.7759  0.0520  -2.7387   0.0000   0.1205
  -7.000  -0.4567   0.01181   0.00502  -0.0512  0.7596  0.0534  -2.6593   0.0000   0.1218
  -6.800  -0.4434   0.01173   0.00489  -0.0493  0.7436  0.0549  -2.5797   0.0000   0.1229
  -6.600  -0.4298   0.01167   0.00476  -0.0474  0.7278  0.0564  -2.5022   0.0000   0.1238
  -6.400  -0.4156   0.01161   0.00464  -0.0457  0.7124  0.0577  -2.4258   0.0000   0.1243
  -6.200  -0.4011   0.01152   0.00451  -0.0440  0.6972  0.0595  -2.3494   0.0000   0.1246
  -6.000  -0.3857   0.01144   0.00438  -0.0426  0.6824  0.0615  -2.2717   0.0000   0.1240
  -5.800  -0.3696   0.01138   0.00427  -0.0412  0.6681  0.0635  -2.1937   0.0000   0.1229
  -5.600  -0.3538   0.01130   0.00415  -0.0398  0.6536  0.0656  -2.1172   0.0000   0.1219
  -5.400  -0.3377   0.01123   0.00403  -0.0385  0.6391  0.0679  -2.0407   0.0000   0.1205
  -5.200  -0.3210   0.01117   0.00393  -0.0372  0.6252  0.0702  -1.9671   0.0000   0.1184
  -5.000  -0.3044   0.01110   0.00382  -0.0360  0.6125  0.0729  -1.8948   0.0000   0.1160
  -4.800  -0.2875   0.01103   0.00372  -0.0348  0.6000  0.0761  -1.8227   0.0000   0.1132
  -4.600  -0.2704   0.01098   0.00363  -0.0337  0.5872  0.0791  -1.7511   0.0000   0.1096
  -4.400  -0.2534   0.01091   0.00354  -0.0325  0.5737  0.0829  -1.6836   0.0000   0.1058
  -4.200  -0.2360   0.01087   0.00345  -0.0314  0.5598  0.0866  -1.6163   0.0000   0.1008
  -4.000  -0.2191   0.01081   0.00337  -0.0302  0.5458  0.0912  -1.5506   0.0000   0.0956
  -3.800  -0.2015   0.01077   0.00329  -0.0292  0.5322  0.0960  -1.4846   0.0000   0.0885
  -3.600  -0.1842   0.01071   0.00321  -0.0281  0.5194  0.1017  -1.4199   0.0000   0.0806
  -3.400  -0.1666   0.01066   0.00314  -0.0270  0.5075  0.1079  -1.3566   0.0000   0.0701
  -3.200  -0.1490   0.01060   0.00307  -0.0260  0.4964  0.1156  -1.2960   0.0000   0.0574
  -3.000  -0.1315   0.01054   0.00300  -0.0249  0.4855  0.1241  -1.2363   0.0000   0.0415
  -2.800  -0.1139   0.01047   0.00293  -0.0239  0.4745  0.1345  -1.1770   0.0000   0.0201
  -2.600  -0.0966   0.01039   0.00286  -0.0228  0.4634  0.1478  -1.1191   0.0000  -0.0073
  -2.400  -0.0798   0.01030   0.00280  -0.0216  0.4523  0.1647  -1.0638   0.0000  -0.0447
  -2.200  -0.0636   0.01018   0.00272  -0.0204  0.4415  0.1874  -1.0115   0.0000  -0.0964
  -2.000  -0.0486   0.00996   0.00262  -0.0189  0.4321  0.2254  -0.9617   0.0000  -0.1685
  -1.800  -0.0374   0.00959   0.00249  -0.0167  0.4238  0.2965  -0.9176   0.0000  -0.2318
  -1.600  -0.0237   0.00934   0.00241  -0.0150  0.4145  0.3515  -0.8728   0.0000  -0.4273
  -1.400  -0.0085   0.00917   0.00236  -0.0135  0.4057  0.3934  -0.8263   0.0000  -1.4323
  -1.200   0.0068   0.00905   0.00233  -0.0121  0.3968  0.4289  -0.7809   0.0000   2.1100
  -1.000   0.0234   0.00895   0.00231  -0.0108  0.3885  0.4588  -0.7848   0.0000   0.7317
  -0.800   0.0405   0.00889   0.00230  -0.0096  0.3813  0.4825  -0.8053   0.0000   0.4943
  -0.600   0.0580   0.00885   0.00229  -0.0086  0.3738  0.5029  -0.8270   0.0000   0.3982
  -0.200   0.0926   0.00877   0.00229  -0.0063  0.3596  0.5454  -0.8708   0.0000   0.3138
   0.000   0.1102   0.00876   0.00230  -0.0052  0.3532  0.5637  -0.8930   0.0000   0.2919
   0.200   0.1282   0.00873   0.00231  -0.0042  0.3475  0.5820  -0.9155   0.0000   0.2764
   0.400   0.1452   0.00871   0.00232  -0.0030  0.3420  0.6023  -0.9375   0.0000   0.2636
   0.600   0.1626   0.00868   0.00234  -0.0019  0.3370  0.6222  -0.9609   0.0000   0.2538
   0.800   0.1800   0.00866   0.00236  -0.0008  0.3316  0.6423  -0.9844   0.0000   0.2459
   1.200   0.2139   0.00862   0.00242   0.0017  0.3222  0.6823  -1.0311   0.0000   0.2329
   1.400   0.2322   0.00863   0.00245   0.0027  0.3179  0.6949  -1.0556   0.0000   0.2292
   1.600   0.2507   0.00867   0.00249   0.0035  0.3136  0.7053  -1.0803   0.0000   0.2262
   1.800   0.2694   0.00869   0.00252   0.0044  0.3099  0.7163  -1.1052   0.0000   0.2238
   2.000   0.2879   0.00871   0.00256   0.0053  0.3058  0.7272  -1.1313   0.0000   0.2215
   2.200   0.3062   0.00875   0.00261   0.0062  0.3017  0.7378  -1.1574   0.0000   0.2193
   2.400   0.3244   0.00880   0.00266   0.0072  0.2982  0.7485  -1.1834   0.0000   0.2173
   2.600   0.3431   0.00882   0.00270   0.0080  0.2953  0.7597  -1.2107   0.0000   0.2158
   2.800   0.3614   0.00884   0.00276   0.0090  0.2920  0.7709  -1.2384   0.0000   0.2143
   3.000   0.3794   0.00888   0.00282   0.0099  0.2884  0.7825  -1.2659   0.0000   0.2127
   3.200   0.3971   0.00894   0.00288   0.0110  0.2848  0.7941  -1.2933   0.0000   0.2110
   3.400   0.4157   0.00897   0.00294   0.0119  0.2820  0.8054  -1.3216   0.0000   0.2100
   3.600   0.4341   0.00901   0.00301   0.0128  0.2790  0.8167  -1.3498   0.0000   0.2090
   3.800   0.4523   0.00906   0.00308   0.0137  0.2757  0.8277  -1.3793   0.0000   0.2079
   4.000   0.4701   0.00913   0.00316   0.0147  0.2724  0.8388  -1.4087   0.0000   0.2068
   4.200   0.4881   0.00919   0.00324   0.0156  0.2696  0.8504  -1.4383   0.0000   0.2058
   4.400   0.5069   0.00923   0.00332   0.0164  0.2669  0.8612  -1.4688   0.0000   0.2053
   4.600   0.5259   0.00929   0.00341   0.0172  0.2641  0.8720  -1.4996   0.0000   0.2048
   4.800   0.5449   0.00937   0.00350   0.0179  0.2611  0.8827  -1.5305   0.0000   0.2045
   5.200   0.5868   0.00957   0.00373   0.0184  0.2553  0.9032  -1.5992   0.0000   0.2055
   5.400   0.6103   0.00968   0.00386   0.0182  0.2524  0.9120  -1.6361   0.0000   0.2071
   5.600   0.6325   0.00980   0.00398   0.0181  0.2495  0.9210  -1.6721   0.0000   0.2080
   5.800   0.6595   0.00996   0.00414   0.0170  0.2464  0.9274  -1.7126   0.0000   0.2107
   6.000   0.6837   0.01011   0.00428   0.0166  0.2435  0.9346  -1.7517   0.0000   0.2122
   6.200   0.7131   0.01026   0.00444   0.0150  0.2405  0.9393  -1.7977   0.0000   0.2153
   6.400   0.7379   0.01041   0.00459   0.0143  0.2375  0.9455  -1.8406   0.0000   0.2167
   6.600   0.7666   0.01060   0.00477   0.0128  0.2344  0.9490  -1.8877   0.0000   0.2193
   6.800   0.7942   0.01081   0.00495   0.0115  0.2312  0.9526  -1.9338   0.0000   0.2213
   7.000   0.8180   0.01095   0.00510   0.0111  0.2286  0.9577  -1.9765   0.0000   0.2221
   7.200   0.8471   0.01113   0.00528   0.0095  0.2254  0.9596  -2.0249   0.0000   0.2243
   7.400   0.8745   0.01134   0.00546   0.0082  0.2221  0.9619  -2.0735   0.0000   0.2259
   7.600   0.8978   0.01155   0.00565   0.0078  0.2191  0.9657  -2.1183   0.0000   0.2264
   7.800   0.9203   0.01170   0.00582   0.0076  0.2169  0.9693  -2.1643   0.0000   0.2266
   8.000   0.9460   0.01189   0.00601   0.0067  0.2143  0.9712  -2.2145   0.0000   0.2276
   8.200   0.9698   0.01209   0.00620   0.0061  0.2114  0.9736  -2.2627   0.0000   0.2281
   8.400   0.9896   0.01230   0.00640   0.0064  0.2084  0.9776  -2.3067   0.0000   0.2277
   8.600   1.0133   0.01252   0.00661   0.0058  0.2057  0.9796  -2.3570   0.0000   0.2281
   8.800   1.0382   0.01270   0.00681   0.0050  0.2031  0.9814  -2.4097   0.0000   0.2288
   9.000   1.0616   0.01291   0.00702   0.0045  0.2000  0.9838  -2.4608   0.0000   0.2291
   9.200   1.0817   0.01315   0.00725   0.0047  0.1972  0.9872  -2.5081   0.0000   0.2288
   9.400   1.1060   0.01341   0.00749   0.0038  0.1943  0.9886  -2.5617   0.0000   0.2294
   9.600   1.1307   0.01360   0.00770   0.0030  0.1919  0.9902  -2.6218   0.0000   0.2300
   9.800   1.1540   0.01382   0.00793   0.0024  0.1890  0.9920  -2.6811   0.0000   0.2303
  10.000   1.1760   0.01408   0.00818   0.0020  0.1861  0.9940  -2.7388   0.0000   0.2303
  10.200   1.1975   0.01438   0.00846   0.0017  0.1829  0.9959  -2.7962   0.0000   0.2304
  10.400   1.2212   0.01461   0.00871   0.0009  0.1801  0.9975  -2.8589   0.0000   0.2307
  10.600   1.2447   0.01487   0.00898   0.0002  0.1768  0.9989  -2.9276   0.0000   0.2310
  10.800   1.2676   0.01518   0.00928  -0.0005  0.1735  0.9999  -2.9958   0.0000   0.2313
  11.000   1.2735   0.01545   0.00955   0.0022  0.1711  1.0000  -3.0372   0.0000   0.2288
  11.200   1.2810   0.01568   0.00980   0.0046  0.1693  1.0000  -3.0815   0.0000   0.2266
  11.400   1.2892   0.01593   0.01006   0.0069  0.1672  1.0000  -3.1270   0.0000   0.2245
  11.600   1.2971   0.01622   0.01036   0.0091  0.1647  1.0000  -3.1722   0.0000   0.2225
  11.800   1.3044   0.01657   0.01071   0.0113  0.1617  1.0000  -3.2165   0.0000   0.2204
  12.000   1.3119   0.01695   0.01109   0.0134  0.1589  1.0000  -3.2619   0.0000   0.2185
  12.200   1.3216   0.01728   0.01144   0.0152  0.1563  1.0000  -3.3169   0.0000   0.2169
  12.400   1.3307   0.01766   0.01184   0.0169  0.1537  1.0000  -3.3729   0.0000   0.2153
  12.600   1.3392   0.01810   0.01228   0.0187  0.1513  1.0000  -3.4278   0.0000   0.2137
  12.800   1.3471   0.01859   0.01278   0.0205  0.1490  1.0000  -3.4816   0.0000   0.2121
  13.000   1.3568   0.01903   0.01324   0.0220  0.1470  1.0000  -3.5391   0.0000   0.2107
  13.200   1.3664   0.01950   0.01374   0.0234  0.1447  1.0000  -3.5986   0.0000   0.2094
  13.400   1.3748   0.02006   0.01431   0.0249  0.1418  1.0000  -3.6581   0.0000   0.2080
  13.600   1.3817   0.02073   0.01498   0.0264  0.1387  1.0000  -3.7160   0.0000   0.2066
  13.800   1.3902   0.02135   0.01561   0.0277  0.1361  1.0000  -3.7786   0.0000   0.2054
  14.000   1.3988   0.02199   0.01628   0.0289  0.1332  1.0000  -3.8414   0.0000   0.2042
  14.200   1.4059   0.02275   0.01705   0.0302  0.1303  1.0000  -3.9009   0.0000   0.2030
  14.400   1.4118   0.02363   0.01793   0.0314  0.1277  1.0000  -3.9584   0.0000   0.2018
  14.600   1.4201   0.02438   0.01872   0.0324  0.1254  1.0000  -4.0234   0.0000   0.2008
  14.800   1.4274   0.02524   0.01960   0.0334  0.1227  1.0000  -4.0858   0.0000   0.1998
  15.000   1.4329   0.02625   0.02062   0.0344  0.1200  1.0000  -4.1438   0.0000   0.1987
  15.200   1.4370   0.02739   0.02178   0.0353  0.1174  1.0000  -4.1995   0.0000   0.1977
  15.400   1.4436   0.02840   0.02283   0.0361  0.1149  1.0000  -4.2626   0.0000   0.1968
  15.600   1.4483   0.02958   0.02404   0.0368  0.1122  1.0000  -4.3209   0.0000   0.1959
  15.800   1.4508   0.03099   0.02546   0.0375  0.1095  1.0000  -4.3729   0.0000   0.1950
  16.000   1.4537   0.03241   0.02691   0.0381  0.1071  1.0000  -4.4270   0.0000   0.1941
  16.200   1.4575   0.03380   0.02834   0.0386  0.1048  1.0000  -4.4845   0.0000   0.1934
  16.400   1.4592   0.03542   0.03000   0.0390  0.1023  1.0000  -4.5360   0.0000   0.1926
  16.600   1.4584   0.03732   0.03192   0.0394  0.0999  1.0000  -4.5797   0.0000   0.1919
  16.800   1.4590   0.03915   0.03379   0.0396  0.0979  1.0000  -4.6270   0.0000   0.1912
  17.000   1.4598   0.04100   0.03569   0.0397  0.0958  1.0000  -4.6768   0.0000   0.1906
  17.200   1.4582   0.04313   0.03786   0.0398  0.0935  1.0000  -4.7189   0.0000   0.1900
  17.400   1.4538   0.04561   0.04038   0.0397  0.0914  1.0000  -4.7516   0.0000   0.1894
  17.600   1.4500   0.04807   0.04289   0.0395  0.0896  1.0000  -4.7865   0.0000   0.1889
  17.800   1.4470   0.05051   0.04539   0.0393  0.0876  1.0000  -4.8242   0.0000   0.1885
  18.000   1.4413   0.05329   0.04822   0.0389  0.0856  1.0000  -4.8527   0.0000   0.1881
  18.200   1.4330   0.05641   0.05139   0.0384  0.0837  1.0000  -4.8712   0.0000   0.1877
  18.400   1.4229   0.05979   0.05483   0.0377  0.0821  1.0000  -4.8829   0.0000   0.1874
  18.600   1.4165   0.06282   0.05792   0.0370  0.0805  1.0000  -4.9063   0.0000   0.1871
  18.800   1.4078   0.06615   0.06131   0.0363  0.0788  1.0000  -4.9210   0.0000   0.1869
  19.000   1.3965   0.06983   0.06505   0.0353  0.0771  1.0000  -4.9254   0.0000   0.1868
  19.200   1.3829   0.07387   0.06916   0.0342  0.0756  1.0000  -4.9212   0.0000   0.1867
  19.400   1.3702   0.07784   0.07319   0.0331  0.0742  1.0000  -4.9193   0.0000   0.1867
  19.600   1.3602   0.08151   0.07692   0.0320  0.0727  1.0000  -4.9265   0.0000   0.1868
  19.800   1.3486   0.08543   0.08091   0.0307  0.0712  1.0000  -4.9266   0.0000   0.1869
  20.000   1.3354   0.08962   0.08516   0.0293  0.0697  1.0000  -4.9189   0.0000   0.1871
  20.200   1.3203   0.09409   0.08968   0.0278  0.0683  1.0000  -4.9027   0.0000   0.1874
  20.400   1.3081   0.09822   0.09387   0.0263  0.0670  1.0000  -4.8963   0.0000   0.1877
  20.600   1.2983   0.10209   0.09780   0.0249  0.0656  1.0000  -4.8980   0.0000   0.1881
  20.800   1.2880   0.10602   0.10178   0.0234  0.0642  1.0000  -4.8971   0.0000   0.1885
  21.000   1.2770   0.11008   0.10589   0.0218  0.0627  1.0000  -4.8918   0.0000   0.1891
  21.200   1.2638   0.11452   0.11038   0.0199  0.0614  1.0000  -4.8756   0.0000   0.1897
  21.400   1.2565   0.11815   0.11405   0.0184  0.0602  1.0000  -4.8829   0.0000   0.1903
  21.600   1.2500   0.12165   0.11760   0.0168  0.0588  1.0000  -4.8932   0.0000   0.1909
  21.800   1.2421   0.12538   0.12137   0.0151  0.0574  1.0000  -4.8959   0.0000   0.1916
  22.000   1.2340   0.12919   0.12521   0.0134  0.0560  1.0000  -4.8961   0.0000   0.1924
  22.200   1.2250   0.13316   0.12923   0.0114  0.0548  1.0000  -4.8911   0.0000   0.1933
  22.400   1.2222   0.13620   0.13231   0.0099  0.0536  1.0000  -4.9131   0.0000   0.1940
  22.600   1.2176   0.13954   0.13568   0.0081  0.0523  1.0000  -4.9258   0.0000   0.1948
  22.800   1.2118   0.14306   0.13923   0.0063  0.0509  1.0000  -4.9321   0.0000   0.1957
  23.000   1.2057   0.14665   0.14285   0.0043  0.0497  1.0000  -4.9367   0.0000   0.1967
  23.200   1.2021   0.14987   0.14611   0.0025  0.0486  1.0000  -4.9526   0.0000   0.1976
  23.400   1.2006   0.15276   0.14903   0.0008  0.0474  1.0000  -4.9785   0.0000   0.1985
  23.600   1.1965   0.15610   0.15240  -0.0012  0.0463  1.0000  -4.9897   0.0000   0.1995
  23.800   1.1925   0.15943   0.15575  -0.0032  0.0451  1.0000  -5.0006   0.0000   0.2006
  24.000   1.1898   0.16255   0.15890  -0.0052  0.0441  1.0000  -5.0172   0.0000   0.2017
  24.200   1.1883   0.16549   0.16188  -0.0071  0.0431  1.0000  -5.0396   0.0000   0.2027
  24.400   1.1874   0.16831   0.16472  -0.0089  0.0421  1.0000  -5.0662   0.0000   0.2036
  24.600   1.1858   0.17125   0.16769  -0.0109  0.0410  1.0000  -5.0882   0.0000   0.2047
  24.800   1.1816   0.17465   0.17111  -0.0131  0.0401  1.0000  -5.0944   0.0000   0.2060
  25.000   1.1813   0.17737   0.17385  -0.0150  0.0392  1.0000  -5.1219   0.0000   0.2070


