xflr5 v6.47

 Calculated polar for: NACA24018_theta30_Ku4.5_Kl0.5_d0.07_delta1.57

 1 1 Reynolds number fixed          Mach number fixed         

 xtrf =   1.000 (top)        1.000 (bottom)
 Mach =   0.000     Re =     3.200 e 6     Ncrit =   5.000

  alpha     CL        CD       CDp       Cm    Top Xtr Bot Xtr   Cpmin    Chinge    XCp    
 ------- -------- --------- --------- -------- ------- ------- -------- --------- ---------
 -15.000  -1.1188   0.02032   0.01574  -0.0815  0.9739  0.0218  -7.1613   0.0000   0.1545
 -14.800  -1.0986   0.01987   0.01528  -0.0819  0.9729  0.0219  -7.0103   0.0000   0.1530
 -14.600  -1.0762   0.01945   0.01485  -0.0827  0.9722  0.0220  -6.8539   0.0000   0.1510
 -14.400  -1.0528   0.01902   0.01442  -0.0836  0.9718  0.0224  -6.6964   0.0000   0.1486
 -14.200  -1.0292   0.01862   0.01401  -0.0846  0.9714  0.0228  -6.5390   0.0000   0.1460
 -14.000  -1.0286   0.01803   0.01340  -0.0811  0.9685  0.0231  -6.4631   0.0000   0.1498
 -13.800  -1.0127   0.01760   0.01297  -0.0805  0.9674  0.0234  -6.3338   0.0000   0.1494
 -13.600  -0.9940   0.01719   0.01256  -0.0804  0.9666  0.0237  -6.1960   0.0000   0.1483
 -13.400  -0.9735   0.01681   0.01218  -0.0806  0.9660  0.0241  -6.0527   0.0000   0.1466
 -13.200  -0.9524   0.01645   0.01182  -0.0809  0.9655  0.0245  -5.9086   0.0000   0.1446
 -13.000  -0.9304   0.01611   0.01148  -0.0814  0.9652  0.0248  -5.7629   0.0000   0.1423
 -12.800  -0.9339   0.01568   0.01103  -0.0767  0.9615  0.0250  -5.7029   0.0000   0.1481
 -12.400  -0.9474   0.01503   0.01035  -0.0662  0.9419  0.0252  -5.6046   0.0000   0.1614
 -12.200  -0.9335   0.01472   0.01002  -0.0649  0.9374  0.0254  -5.4877   0.0000   0.1620
 -12.000  -0.9168   0.01439   0.00968  -0.0641  0.9343  0.0255  -5.3625   0.0000   0.1619
 -11.800  -0.8983   0.01401   0.00930  -0.0636  0.9308  0.0261  -5.2334   0.0000   0.1612
 -11.600  -0.8751   0.01364   0.00892  -0.0641  0.9265  0.0267  -5.0902   0.0000   0.1589
 -11.400  -0.8471   0.01323   0.00852  -0.0654  0.9231  0.0274  -4.9386   0.0000   0.1550
 -11.200  -0.8143   0.01280   0.00808  -0.0677  0.9187  0.0280  -4.7752   0.0000   0.1491
 -11.000  -0.7791   0.01237   0.00764  -0.0705  0.9105  0.0285  -4.6070   0.0000   0.1418
 -10.800  -0.7376   0.01193   0.00717  -0.0745  0.9007  0.0290  -4.4301   0.0000   0.1310
 -10.600  -0.7024   0.01158   0.00673  -0.0773  0.8774  0.0294  -4.2732   0.0000   0.1219
 -10.400  -0.6876   0.01139   0.00643  -0.0760  0.8442  0.0300  -4.1739   0.0000   0.1217
 -10.200  -0.6756   0.01126   0.00619  -0.0741  0.8124  0.0307  -4.0823   0.0000   0.1228
 -10.000  -0.6614   0.01114   0.00597  -0.0726  0.7823  0.0313  -3.9857   0.0000   0.1229
  -9.800  -0.6451   0.01102   0.00576  -0.0715  0.7541  0.0319  -3.8841   0.0000   0.1219
  -9.600  -0.6267   0.01090   0.00557  -0.0708  0.7287  0.0325  -3.7782   0.0000   0.1198
  -9.400  -0.6071   0.01078   0.00539  -0.0704  0.7089  0.0330  -3.6702   0.0000   0.1170
  -9.200  -0.5866   0.01066   0.00522  -0.0701  0.6920  0.0335  -3.5608   0.0000   0.1134
  -9.000  -0.5653   0.01055   0.00505  -0.0700  0.6735  0.0341  -3.4509   0.0000   0.1091
  -8.800  -0.5435   0.01042   0.00487  -0.0700  0.6547  0.0352  -3.3412   0.0000   0.1041
  -8.600  -0.5219   0.01030   0.00471  -0.0699  0.6385  0.0363  -3.2329   0.0000   0.0989
  -8.400  -0.5006   0.01019   0.00456  -0.0698  0.6243  0.0372  -3.1264   0.0000   0.0933
  -8.200  -0.4792   0.01009   0.00443  -0.0697  0.6123  0.0379  -3.0209   0.0000   0.0873
  -8.000  -0.4576   0.01000   0.00431  -0.0696  0.5998  0.0384  -2.9163   0.0000   0.0806
  -7.800  -0.4360   0.00991   0.00418  -0.0694  0.5859  0.0397  -2.8134   0.0000   0.0732
  -7.600  -0.4143   0.00981   0.00405  -0.0693  0.5715  0.0409  -2.7113   0.0000   0.0649
  -7.400  -0.3925   0.00973   0.00394  -0.0693  0.5573  0.0421  -2.6100   0.0000   0.0556
  -7.200  -0.3705   0.00966   0.00383  -0.0692  0.5442  0.0432  -2.5137   0.0000   0.0449
  -7.000  -0.3484   0.00961   0.00374  -0.0692  0.5309  0.0441  -2.4189   0.0000   0.0329
  -6.800  -0.3262   0.00954   0.00363  -0.0692  0.5167  0.0458  -2.3255   0.0000   0.0190
  -6.600  -0.3040   0.00947   0.00354  -0.0692  0.5033  0.0472  -2.2329   0.0000   0.0031
  -6.400  -0.2816   0.00941   0.00346  -0.0692  0.4919  0.0486  -2.1421   0.0000  -0.0156
  -6.200  -0.2591   0.00937   0.00338  -0.0692  0.4802  0.0496  -2.0557   0.0000  -0.0377
  -6.000  -0.2366   0.00931   0.00330  -0.0692  0.4676  0.0519  -1.9707   0.0000  -0.0641
  -5.800  -0.2141   0.00926   0.00322  -0.0693  0.4553  0.0538  -1.8865   0.0000  -0.0964
  -5.600  -0.1914   0.00923   0.00316  -0.0693  0.4434  0.0553  -1.8032   0.0000  -0.1363
  -5.400  -0.1686   0.00919   0.00310  -0.0694  0.4341  0.0566  -1.7210   0.0000  -0.1874
  -5.200  -0.1458   0.00914   0.00303  -0.0695  0.4246  0.0593  -1.6439   0.0000  -0.2549
  -5.000  -0.1229   0.00911   0.00298  -0.0695  0.4135  0.0619  -1.5678   0.0000  -0.3476
  -4.800  -0.1000   0.00909   0.00293  -0.0696  0.4027  0.0638  -1.4926   0.0000  -0.4829
  -4.600  -0.0770   0.00905   0.00288  -0.0698  0.3926  0.0675  -1.4184   0.0000  -0.7011
  -4.400  -0.0540   0.00903   0.00284  -0.0699  0.3827  0.0704  -1.3451   0.0000  -1.1045
  -4.200  -0.0310   0.00902   0.00281  -0.0700  0.3728  0.0731  -1.2730   0.0000  -2.1078
  -4.000  -0.0076   0.00898   0.00277  -0.0702  0.3641  0.0782  -1.2029   0.0000  -9.2967
  -3.800   0.0155   0.00898   0.00274  -0.0703  0.3551  0.0817  -1.1364   0.0000   4.9628
  -3.600   0.0390   0.00894   0.00271  -0.0705  0.3489  0.0880  -1.0703   0.0000   2.1173
  -3.400   0.0623   0.00893   0.00269  -0.0707  0.3419  0.0922  -1.0056   0.0000   1.4191
  -3.200   0.0860   0.00889   0.00266  -0.0709  0.3373  0.0985  -0.9443   0.0000   1.0970
  -3.000   0.1093   0.00889   0.00265  -0.0711  0.3311  0.1030  -0.8864   0.0000   0.9155
  -2.800   0.1332   0.00886   0.00263  -0.0714  0.3252  0.1119  -0.8305   0.0000   0.7970
  -2.600   0.1570   0.00883   0.00262  -0.0716  0.3194  0.1211  -0.7999   0.0000   0.7142
  -2.400   0.1807   0.00883   0.00262  -0.0719  0.3128  0.1302  -0.8243   0.0000   0.6536
  -2.200   0.2050   0.00879   0.00261  -0.0723  0.3094  0.1427  -0.8494   0.0000   0.6065
  -2.000   0.2300   0.00874   0.00261  -0.0728  0.3051  0.1610  -0.8761   0.0000   0.5692
  -1.800   0.2548   0.00871   0.00261  -0.0733  0.2995  0.1806  -0.9028   0.0000   0.5393
  -1.600   0.2816   0.00861   0.00260  -0.0743  0.2960  0.2143  -0.9311   0.0000   0.5144
  -1.400   0.3099   0.00849   0.00260  -0.0757  0.2915  0.2585  -0.9606   0.0000   0.4938
  -1.200   0.3413   0.00834   0.00261  -0.0777  0.2860  0.3217  -0.9922   0.0000   0.4767
  -1.000   0.3720   0.00823   0.00264  -0.0796  0.2824  0.3705  -1.0249   0.0000   0.4623
  -0.800   0.4017   0.00817   0.00268  -0.0812  0.2788  0.4088  -1.0586   0.0000   0.4499
  -0.600   0.4294   0.00816   0.00272  -0.0823  0.2751  0.4334  -1.0913   0.0000   0.4390
  -0.200   0.4842   0.00817   0.00282  -0.0844  0.2690  0.4774  -1.1570   0.0000   0.4208
   0.000   0.5115   0.00818   0.00287  -0.0854  0.2665  0.4979  -1.1901   0.0000   0.4131
   0.200   0.5399   0.00819   0.00294  -0.0866  0.2630  0.5212  -1.2242   0.0000   0.4063
   0.400   0.5674   0.00824   0.00301  -0.0877  0.2586  0.5420  -1.2578   0.0000   0.4000
   0.600   0.5943   0.00828   0.00307  -0.0886  0.2557  0.5585  -1.2912   0.0000   0.3943
   0.800   0.6203   0.00832   0.00314  -0.0893  0.2534  0.5698  -1.3241   0.0000   0.3889
   1.000   0.6452   0.00838   0.00320  -0.0897  0.2507  0.5775  -1.3577   0.0000   0.3837
   1.200   0.6697   0.00846   0.00327  -0.0901  0.2471  0.5849  -1.3913   0.0000   0.3790
   1.400   0.6939   0.00854   0.00335  -0.0905  0.2430  0.5913  -1.4248   0.0000   0.3745
   1.600   0.7187   0.00860   0.00341  -0.0909  0.2410  0.5984  -1.4590   0.0000   0.3703
   1.800   0.7427   0.00867   0.00349  -0.0912  0.2385  0.6049  -1.4929   0.0000   0.3664
   2.000   0.7676   0.00875   0.00357  -0.0917  0.2352  0.6126  -1.5284   0.0000   0.3628
   2.400   0.8162   0.00893   0.00374  -0.0924  0.2286  0.6268  -1.6008   0.0000   0.3560
   2.800   0.8650   0.00910   0.00392  -0.0932  0.2237  0.6410  -1.6751   0.0000   0.3500
   3.000   0.8883   0.00922   0.00402  -0.0933  0.2200  0.6476  -1.7129   0.0000   0.3472
   3.200   0.9130   0.00932   0.00413  -0.0938  0.2163  0.6551  -1.7523   0.0000   0.3446
   3.400   0.9369   0.00941   0.00422  -0.0941  0.2148  0.6621  -1.7929   0.0000   0.3420
   3.600   0.9620   0.00950   0.00433  -0.0946  0.2128  0.6698  -1.8352   0.0000   0.3397
   3.800   0.9856   0.00960   0.00444  -0.0949  0.2104  0.6773  -1.8762   0.0000   0.3373
   4.000   1.0102   0.00972   0.00456  -0.0953  0.2074  0.6848  -1.9185   0.0000   0.3352
   4.200   1.0332   0.00986   0.00468  -0.0954  0.2036  0.6913  -1.9593   0.0000   0.3330
   4.400   1.0578   0.00996   0.00480  -0.0959  0.2018  0.6980  -2.0021   0.0000   0.3310
   4.600   1.0814   0.01008   0.00492  -0.0961  0.1995  0.7049  -2.0440   0.0000   0.3290
   4.800   1.1052   0.01021   0.00505  -0.0964  0.1967  0.7112  -2.0864   0.0000   0.3270
   5.000   1.1284   0.01036   0.00520  -0.0966  0.1931  0.7183  -2.1298   0.0000   0.3252
   5.200   1.1516   0.01050   0.00534  -0.0968  0.1901  0.7245  -2.1743   0.0000   0.3233
   5.400   1.1757   0.01063   0.00548  -0.0972  0.1880  0.7313  -2.2199   0.0000   0.3216
   5.600   1.1982   0.01078   0.00563  -0.0972  0.1850  0.7376  -2.2641   0.0000   0.3199
   5.800   1.2220   0.01096   0.00580  -0.0975  0.1814  0.7448  -2.3113   0.0000   0.3183
   6.000   1.2440   0.01112   0.00596  -0.0975  0.1781  0.7510  -2.3582   0.0000   0.3166
   6.200   1.2678   0.01126   0.00612  -0.0978  0.1764  0.7568  -2.4095   0.0000   0.3151
   6.400   1.2901   0.01142   0.00628  -0.0979  0.1737  0.7624  -2.4593   0.0000   0.3135
   6.600   1.3110   0.01162   0.00647  -0.0976  0.1700  0.7672  -2.5075   0.0000   0.3118
   6.800   1.3334   0.01184   0.00667  -0.0977  0.1658  0.7731  -2.5579   0.0000   0.3103
   7.000   1.3554   0.01199   0.00684  -0.0977  0.1642  0.7787  -2.6096   0.0000   0.3088
   7.200   1.3771   0.01216   0.00702  -0.0976  0.1622  0.7833  -2.6650   0.0000   0.3073
   7.400   1.3986   0.01237   0.00723  -0.0975  0.1596  0.7885  -2.7206   0.0000   0.3059
   7.600   1.4179   0.01262   0.00746  -0.0970  0.1557  0.7936  -2.7732   0.0000   0.3042
   7.800   1.4380   0.01283   0.00768  -0.0966  0.1527  0.7980  -2.8275   0.0000   0.3027
   8.000   1.4586   0.01304   0.00790  -0.0964  0.1500  0.8029  -2.8828   0.0000   0.3013
   8.200   1.4777   0.01328   0.00813  -0.0958  0.1471  0.8073  -2.9376   0.0000   0.2998
   8.400   1.4953   0.01357   0.00840  -0.0950  0.1430  0.8107  -2.9944   0.0000   0.2982
   8.600   1.5153   0.01380   0.00864  -0.0947  0.1402  0.8147  -3.0555   0.0000   0.2968
   8.800   1.5341   0.01407   0.00891  -0.0942  0.1367  0.8193  -3.1150   0.0000   0.2953
   9.000   1.5513   0.01439   0.00921  -0.0934  0.1329  0.8233  -3.1771   0.0000   0.2938
   9.200   1.5693   0.01466   0.00948  -0.0927  0.1298  0.8264  -3.2417   0.0000   0.2923
   9.400   1.5872   0.01493   0.00976  -0.0920  0.1272  0.8299  -3.3067   0.0000   0.2909
   9.600   1.6027   0.01528   0.01010  -0.0909  0.1235  0.8332  -3.3681   0.0000   0.2893
   9.800   1.6177   0.01566   0.01046  -0.0897  0.1194  0.8363  -3.4288   0.0000   0.2877
  10.000   1.6344   0.01596   0.01076  -0.0888  0.1171  0.8390  -3.4969   0.0000   0.2863
  10.200   1.6499   0.01632   0.01112  -0.0878  0.1138  0.8417  -3.5680   0.0000   0.2848
  10.400   1.6642   0.01673   0.01153  -0.0866  0.1101  0.8449  -3.6369   0.0000   0.2833
  10.600   1.6790   0.01709   0.01190  -0.0854  0.1076  0.8479  -3.7077   0.0000   0.2818
  10.800   1.6928   0.01750   0.01231  -0.0842  0.1044  0.8506  -3.7804   0.0000   0.2802
  11.000   1.7048   0.01804   0.01282  -0.0827  0.0998  0.8531  -3.8516   0.0000   0.2787
  11.200   1.7190   0.01845   0.01324  -0.0815  0.0972  0.8552  -3.9285   0.0000   0.2772
  11.400   1.7313   0.01890   0.01370  -0.0801  0.0948  0.8578  -4.0027   0.0000   0.2757
  11.600   1.7418   0.01946   0.01425  -0.0784  0.0915  0.8602  -4.0748   0.0000   0.2741
  11.800   1.7526   0.02002   0.01481  -0.0768  0.0883  0.8624  -4.1481   0.0000   0.2725
  12.000   1.7648   0.02053   0.01533  -0.0755  0.0861  0.8644  -4.2252   0.0000   0.2711
  12.200   1.7752   0.02116   0.01596  -0.0740  0.0834  0.8663  -4.2986   0.0000   0.2696
  12.400   1.7849   0.02187   0.01667  -0.0724  0.0803  0.8680  -4.3703   0.0000   0.2681
  12.600   1.7957   0.02247   0.01728  -0.0710  0.0783  0.8699  -4.4460   0.0000   0.2667
  12.800   1.8034   0.02316   0.01800  -0.0692  0.0759  0.8722  -4.5192   0.0000   0.2651
  13.000   1.8086   0.02405   0.01889  -0.0672  0.0726  0.8742  -4.5858   0.0000   0.2635
  13.200   1.8164   0.02485   0.01969  -0.0656  0.0701  0.8761  -4.6612   0.0000   0.2620
  13.400   1.8246   0.02566   0.02052  -0.0641  0.0682  0.8778  -4.7396   0.0000   0.2606
  13.600   1.8316   0.02662   0.02149  -0.0627  0.0659  0.8794  -4.8145   0.0000   0.2593
  13.800   1.8378   0.02769   0.02257  -0.0612  0.0633  0.8808  -4.8876   0.0000   0.2580
  14.000   1.8470   0.02864   0.02353  -0.0602  0.0618  0.8820  -4.9693   0.0000   0.2568
  14.200   1.8534   0.02970   0.02462  -0.0589  0.0600  0.8832  -5.0434   0.0000   0.2555
  14.400   1.8549   0.03094   0.02588  -0.0571  0.0579  0.8848  -5.1040   0.0000   0.2541
  14.600   1.8560   0.03228   0.02724  -0.0553  0.0556  0.8861  -5.1632   0.0000   0.2527
  14.800   1.8603   0.03345   0.02844  -0.0540  0.0545  0.8875  -5.2318   0.0000   0.2514
  15.000   1.8640   0.03474   0.02976  -0.0527  0.0532  0.8888  -5.2987   0.0000   0.2502
  15.200   1.8662   0.03623   0.03128  -0.0516  0.0517  0.8901  -5.3612   0.0000   0.2491
  15.400   1.8672   0.03794   0.03301  -0.0505  0.0501  0.8913  -5.4197   0.0000   0.2481
  15.600   1.8696   0.03962   0.03472  -0.0497  0.0486  0.8924  -5.4823   0.0000   0.2471
  15.800   1.8735   0.04123   0.03638  -0.0492  0.0478  0.8933  -5.5496   0.0000   0.2462
  16.000   1.8757   0.04307   0.03825  -0.0486  0.0466  0.8942  -5.6151   0.0000   0.2454
  16.200   1.8751   0.04524   0.04045  -0.0482  0.0451  0.8949  -5.6723   0.0000   0.2447
  16.400   1.8721   0.04771   0.04295  -0.0479  0.0434  0.8955  -5.7213   0.0000   0.2440
  16.600   1.8717   0.05002   0.04530  -0.0477  0.0422  0.8960  -5.7786   0.0000   0.2434
  16.800   1.8688   0.05238   0.04772  -0.0474  0.0412  0.8968  -5.8276   0.0000   0.2427
  17.000   1.8630   0.05495   0.05034  -0.0469  0.0402  0.8976  -5.8666   0.0000   0.2420
  17.200   1.8558   0.05776   0.05320  -0.0467  0.0393  0.8984  -5.8999   0.0000   0.2415
  17.400   1.8466   0.06088   0.05638  -0.0467  0.0383  0.8991  -5.9254   0.0000   0.2410
  17.600   1.8380   0.06406   0.05962  -0.0468  0.0374  0.8996  -5.9519   0.0000   0.2406
  17.800   1.8317   0.06704   0.06266  -0.0471  0.0369  0.9001  -5.9862   0.0000   0.2403
  18.000   1.8244   0.07023   0.06592  -0.0475  0.0364  0.9006  -6.0192   0.0000   0.2401
  18.200   1.8149   0.07376   0.06951  -0.0482  0.0359  0.9011  -6.0436   0.0000   0.2400
  18.400   1.8040   0.07753   0.07336  -0.0490  0.0353  0.9014  -6.0609   0.0000   0.2400
  18.600   1.7919   0.08153   0.07742  -0.0500  0.0346  0.9017  -6.0726   0.0000   0.2402
  18.800   1.7771   0.08598   0.08194  -0.0514  0.0339  0.9020  -6.0723   0.0000   0.2405
  19.000   1.7613   0.09064   0.08668  -0.0529  0.0333  0.9023  -6.0657   0.0000   0.2411
  19.200   1.7464   0.09520   0.09131  -0.0546  0.0325  0.9025  -6.0613   0.0000   0.2416
  19.400   1.7337   0.09950   0.09568  -0.0562  0.0321  0.9027  -6.0647   0.0000   0.2422
  19.600   1.7209   0.10387   0.10013  -0.0580  0.0317  0.9029  -6.0657   0.0000   0.2428
  19.800   1.7078   0.10832   0.10465  -0.0599  0.0312  0.9032  -6.0638   0.0000   0.2436
  20.000   1.6944   0.11281   0.10921  -0.0620  0.0308  0.9034  -6.0592   0.0000   0.2445
  20.200   1.6811   0.11731   0.11378  -0.0642  0.0302  0.9036  -6.0529   0.0000   0.2454
  20.400   1.6674   0.12190   0.11843  -0.0666  0.0297  0.9039  -6.0431   0.0000   0.2465
  20.600   1.6538   0.12652   0.12312  -0.0691  0.0291  0.9042  -6.0311   0.0000   0.2477
  20.800   1.6411   0.13105   0.12771  -0.0717  0.0285  0.9045  -6.0211   0.0000   0.2490
  21.000   1.6314   0.13514   0.13186  -0.0741  0.0280  0.9048  -6.0236   0.0000   0.2501
  21.200   1.6259   0.13857   0.13534  -0.0762  0.0277  0.9052  -6.0456   0.0000   0.2509
  21.400   1.6171   0.14255   0.13938  -0.0788  0.0273  0.9055  -6.0495   0.0000   0.2521
  21.600   1.6129   0.14583   0.14269  -0.0809  0.0268  0.9059  -6.0753   0.0000   0.2529
  21.800   1.6043   0.14987   0.14678  -0.0837  0.0264  0.9062  -6.0766   0.0000   0.2543
  22.000   1.6001   0.15318   0.15013  -0.0860  0.0259  0.9065  -6.1001   0.0000   0.2552
  22.200   1.5917   0.15721   0.15421  -0.0890  0.0254  0.9068  -6.0997   0.0000   0.2567
  22.400   1.5879   0.16052   0.15756  -0.0915  0.0248  0.9071  -6.1219   0.0000   0.2577
  22.600   1.5808   0.16441   0.16149  -0.0945  0.0243  0.9074  -6.1263   0.0000   0.2592
  22.800   1.5807   0.16716   0.16427  -0.0967  0.0240  0.9078  -6.1692   0.0000   0.2599
  23.000   1.5755   0.17076   0.16792  -0.0996  0.0237  0.9081  -6.1821   0.0000   0.2613
  23.200   1.5749   0.17358   0.17078  -0.1020  0.0233  0.9084  -6.2206   0.0000   0.2622
  23.400   1.5736   0.17653   0.17376  -0.1045  0.0228  0.9086  -6.2542   0.0000   0.2631
  23.600   1.5684   0.18014   0.17742  -0.1076  0.0224  0.9089  -6.2636   0.0000   0.2646
  23.800   1.5672   0.18298   0.18028  -0.1100  0.0219  0.9091  -6.2964   0.0000   0.2656
  24.000   1.5599   0.18651   0.18385  -0.1128  0.0215  0.9096  -6.2946   0.0000   0.2670
  24.200   1.5566   0.18927   0.18664  -0.1150  0.0210  0.9100  -6.3171   0.0000   0.2679
  24.400   1.5559   0.19158   0.18898  -0.1169  0.0207  0.9105  -6.3551   0.0000   0.2684
  24.600   1.5504   0.19478   0.19223  -0.1196  0.0204  0.9108  -6.3606   0.0000   0.2697
  24.800   1.5491   0.19722   0.19469  -0.1216  0.0201  0.9112  -6.3933   0.0000   0.2704
  25.000   1.5484   0.19952   0.19702  -0.1235  0.0197  0.9116  -6.4296   0.0000   0.2710


