xflr5 v6.47

 Calculated polar for: NACA24018_theta30_Ku4.5_Kl0.5_d0.00_delta0.00

 1 1 Reynolds number fixed          Mach number fixed         

 xtrf =   1.000 (top)        1.000 (bottom)
 Mach =   0.000     Re =     1.600 e 6     Ncrit =   5.000

  alpha     CL        CD       CDp       Cm    Top Xtr Bot Xtr   Cpmin    Chinge    XCp    
 ------- -------- --------- --------- -------- ------- ------- -------- --------- ---------
 -15.000  -1.2409   0.02167   0.01645  -0.0591  1.0000  0.0226  -7.6365   0.0000   0.1799
 -14.800  -1.2331   0.02113   0.01589  -0.0574  1.0000  0.0228  -7.5295   0.0000   0.1814
 -14.600  -1.2255   0.02062   0.01535  -0.0556  1.0000  0.0230  -7.4232   0.0000   0.1829
 -14.400  -1.2181   0.02015   0.01485  -0.0537  1.0000  0.0231  -7.3178   0.0000   0.1846
 -14.200  -1.2109   0.01971   0.01439  -0.0516  1.0000  0.0232  -7.2135   0.0000   0.1863
 -14.000  -1.2030   0.01924   0.01390  -0.0497  0.9999  0.0235  -7.1078   0.0000   0.1880
 -13.800  -1.1833   0.01872   0.01337  -0.0501  0.9993  0.0238  -6.9590   0.0000   0.1873
 -13.600  -1.1630   0.01823   0.01287  -0.0504  0.9984  0.0241  -6.8093   0.0000   0.1865
 -13.400  -1.1424   0.01777   0.01241  -0.0508  0.9972  0.0245  -6.6591   0.0000   0.1857
 -13.200  -1.1220   0.01733   0.01196  -0.0511  0.9952  0.0248  -6.5105   0.0000   0.1849
 -13.000  -1.1031   0.01692   0.01154  -0.0510  0.9933  0.0252  -6.3687   0.0000   0.1844
 -12.800  -1.0834   0.01653   0.01114  -0.0510  0.9914  0.0256  -6.2248   0.0000   0.1838
 -12.600  -1.0626   0.01617   0.01077  -0.0512  0.9895  0.0259  -6.0808   0.0000   0.1829
 -12.400  -1.0408   0.01582   0.01041  -0.0516  0.9878  0.0262  -5.9374   0.0000   0.1818
 -12.200  -1.0228   0.01547   0.01005  -0.0512  0.9844  0.0266  -5.8078   0.0000   0.1816
 -12.000  -1.0032   0.01510   0.00968  -0.0510  0.9811  0.0270  -5.6743   0.0000   0.1809
 -11.600  -0.9615   0.01442   0.00899  -0.0512  0.9741  0.0279  -5.4021   0.0000   0.1789
 -11.400  -0.9373   0.01410   0.00867  -0.0519  0.9709  0.0284  -5.2572   0.0000   0.1770
 -11.200  -0.9120   0.01380   0.00836  -0.0528  0.9677  0.0289  -5.1106   0.0000   0.1746
 -11.000  -0.8856   0.01351   0.00806  -0.0540  0.9632  0.0294  -4.9619   0.0000   0.1717
 -10.800  -0.8544   0.01321   0.00775  -0.0561  0.9599  0.0299  -4.8008   0.0000   0.1671
 -10.600  -0.8212   0.01286   0.00742  -0.0586  0.9554  0.0307  -4.6362   0.0000   0.1613
 -10.400  -0.7857   0.01254   0.00710  -0.0617  0.9492  0.0315  -4.4710   0.0000   0.1542
 -10.200  -0.7513   0.01225   0.00680  -0.0644  0.9407  0.0323  -4.3129   0.0000   0.1469
 -10.000  -0.7188   0.01200   0.00652  -0.0668  0.9298  0.0330  -4.1620   0.0000   0.1397
  -9.800  -0.6914   0.01180   0.00626  -0.0680  0.9151  0.0335  -4.0271   0.0000   0.1342
  -9.400  -0.6559   0.01148   0.00581  -0.0664  0.8727  0.0350  -3.8124   0.0000   0.1317
  -9.200  -0.6433   0.01138   0.00562  -0.0644  0.8485  0.0356  -3.7197   0.0000   0.1329
  -9.000  -0.6315   0.01129   0.00544  -0.0622  0.8243  0.0363  -3.6300   0.0000   0.1347
  -8.800  -0.6193   0.01121   0.00528  -0.0601  0.8013  0.0369  -3.5398   0.0000   0.1364
  -8.600  -0.6068   0.01114   0.00512  -0.0581  0.7801  0.0374  -3.4519   0.0000   0.1379
  -8.400  -0.5943   0.01103   0.00495  -0.0561  0.7606  0.0383  -3.3665   0.0000   0.1395
  -8.200  -0.5812   0.01093   0.00479  -0.0542  0.7426  0.0391  -3.2801   0.0000   0.1408
  -8.000  -0.5676   0.01083   0.00464  -0.0524  0.7261  0.0400  -3.1933   0.0000   0.1420
  -7.800  -0.5537   0.01075   0.00451  -0.0506  0.7105  0.0408  -3.1065   0.0000   0.1430
  -7.600  -0.5395   0.01068   0.00438  -0.0488  0.6949  0.0415  -3.0200   0.0000   0.1440
  -7.400  -0.5256   0.01061   0.00427  -0.0471  0.6803  0.0424  -2.9349   0.0000   0.1451
  -7.200  -0.5118   0.01054   0.00416  -0.0452  0.6658  0.0435  -2.8509   0.0000   0.1464
  -7.000  -0.4970   0.01048   0.00406  -0.0436  0.6515  0.0448  -2.7653   0.0000   0.1471
  -6.800  -0.4808   0.01042   0.00395  -0.0423  0.6377  0.0459  -2.6774   0.0000   0.1470
  -6.600  -0.4641   0.01035   0.00384  -0.0411  0.6241  0.0469  -2.5896   0.0000   0.1466
  -6.400  -0.4476   0.01028   0.00373  -0.0398  0.6102  0.0483  -2.5052   0.0000   0.1463
  -6.200  -0.4307   0.01021   0.00363  -0.0386  0.5967  0.0499  -2.4223   0.0000   0.1456
  -5.800  -0.3958   0.01009   0.00344  -0.0364  0.5730  0.0528  -2.2571   0.0000   0.1432
  -5.600  -0.3781   0.01002   0.00335  -0.0354  0.5616  0.0546  -2.1756   0.0000   0.1416
  -5.400  -0.3602   0.00996   0.00326  -0.0344  0.5499  0.0563  -2.0944   0.0000   0.1397
  -5.200  -0.3422   0.00992   0.00318  -0.0334  0.5370  0.0579  -2.0149   0.0000   0.1375
  -5.000  -0.3247   0.00987   0.00310  -0.0324  0.5230  0.0603  -1.9399   0.0000   0.1355
  -4.800  -0.3067   0.00983   0.00303  -0.0314  0.5092  0.0626  -1.8649   0.0000   0.1328
  -4.600  -0.2884   0.00980   0.00295  -0.0304  0.4963  0.0646  -1.7904   0.0000   0.1294
  -4.400  -0.2703   0.00975   0.00288  -0.0295  0.4847  0.0673  -1.7191   0.0000   0.1258
  -4.200  -0.2515   0.00971   0.00282  -0.0287  0.4744  0.0698  -1.6486   0.0000   0.1207
  -4.000  -0.2329   0.00966   0.00275  -0.0278  0.4645  0.0728  -1.5794   0.0000   0.1150
  -3.800  -0.2144   0.00962   0.00269  -0.0269  0.4544  0.0764  -1.5112   0.0000   0.1086
  -3.600  -0.1955   0.00959   0.00263  -0.0261  0.4438  0.0798  -1.4433   0.0000   0.1003
  -3.400  -0.1769   0.00954   0.00258  -0.0252  0.4334  0.0842  -1.3768   0.0000   0.0907
  -3.200  -0.1581   0.00952   0.00253  -0.0244  0.4230  0.0885  -1.3138   0.0000   0.0784
  -3.000  -0.1395   0.00948   0.00248  -0.0235  0.4129  0.0938  -1.2518   0.0000   0.0633
  -2.800  -0.1204   0.00944   0.00243  -0.0228  0.4044  0.0992  -1.1899   0.0000   0.0418
  -2.600  -0.1016   0.00941   0.00239  -0.0220  0.3954  0.1057  -1.1293   0.0000   0.0136
  -2.400  -0.0830   0.00936   0.00235  -0.0211  0.3859  0.1136  -1.0702   0.0000  -0.0266
  -2.200  -0.0641   0.00932   0.00231  -0.0203  0.3775  0.1219  -1.0139   0.0000  -0.0920
  -1.800  -0.0268   0.00921   0.00223  -0.0186  0.3631  0.1454  -0.9044   0.0000  -0.4892
  -1.600  -0.0086   0.00914   0.00219  -0.0177  0.3557  0.1610  -0.8538   0.0000  -1.9192
  -1.400   0.0095   0.00905   0.00215  -0.0167  0.3494  0.1819  -0.8039   0.0000   2.1004
  -1.200   0.0256   0.00888   0.00209  -0.0154  0.3427  0.2188  -0.7772   0.0000   0.8771
  -1.000   0.0388   0.00857   0.00199  -0.0136  0.3377  0.2841  -0.7953   0.0000   0.6110
  -0.800   0.0538   0.00833   0.00192  -0.0121  0.3327  0.3384  -0.8146   0.0000   0.4787
  -0.600   0.0696   0.00817   0.00189  -0.0107  0.3275  0.3812  -0.8354   0.0000   0.4041
  -0.400   0.0867   0.00805   0.00187  -0.0096  0.3231  0.4155  -0.8572   0.0000   0.3581
  -0.200   0.1050   0.00798   0.00186  -0.0087  0.3181  0.4390  -0.8799   0.0000   0.3285
   0.000   0.1231   0.00794   0.00186  -0.0077  0.3128  0.4608  -0.9025   0.0000   0.3074
   0.200   0.1416   0.00787   0.00186  -0.0068  0.3092  0.4840  -0.9255   0.0000   0.2921
   0.400   0.1603   0.00782   0.00186  -0.0060  0.3056  0.5047  -0.9491   0.0000   0.2805
   0.600   0.1791   0.00780   0.00187  -0.0052  0.3017  0.5221  -0.9736   0.0000   0.2715
   0.800   0.1975   0.00777   0.00188  -0.0043  0.2978  0.5417  -0.9980   0.0000   0.2637
   1.000   0.2159   0.00772   0.00189  -0.0033  0.2947  0.5648  -1.0224   0.0000   0.2573
   1.200   0.2343   0.00768   0.00191  -0.0024  0.2910  0.5854  -1.0470   0.0000   0.2518
   1.400   0.2521   0.00765   0.00194  -0.0014  0.2874  0.6074  -1.0713   0.0000   0.2466
   1.600   0.2700   0.00763   0.00196  -0.0004  0.2842  0.6295  -1.0956   0.0000   0.2422
   1.800   0.2888   0.00761   0.00198   0.0005  0.2818  0.6460  -1.1210   0.0000   0.2389
   2.000   0.3084   0.00762   0.00201   0.0011  0.2787  0.6558  -1.1481   0.0000   0.2367
   2.200   0.3276   0.00765   0.00205   0.0019  0.2751  0.6653  -1.1750   0.0000   0.2344
   2.400   0.3467   0.00769   0.00209   0.0026  0.2713  0.6752  -1.2018   0.0000   0.2323
   2.600   0.3661   0.00770   0.00212   0.0033  0.2691  0.6858  -1.2305   0.0000   0.2306
   2.800   0.3852   0.00771   0.00216   0.0041  0.2663  0.6964  -1.2590   0.0000   0.2289
   3.000   0.4041   0.00774   0.00220   0.0049  0.2631  0.7067  -1.2875   0.0000   0.2272
   3.200   0.4228   0.00779   0.00225   0.0057  0.2596  0.7170  -1.3159   0.0000   0.2256
   3.400   0.4413   0.00781   0.00230   0.0066  0.2569  0.7277  -1.3442   0.0000   0.2240
   3.600   0.4601   0.00783   0.00234   0.0074  0.2550  0.7382  -1.3736   0.0000   0.2227
   3.800   0.4787   0.00786   0.00239   0.0083  0.2524  0.7495  -1.4037   0.0000   0.2213
   4.000   0.4967   0.00789   0.00245   0.0092  0.2495  0.7615  -1.4335   0.0000   0.2198
   4.200   0.5141   0.00794   0.00251   0.0103  0.2462  0.7731  -1.4628   0.0000   0.2181
   4.400   0.5319   0.00797   0.00257   0.0113  0.2436  0.7840  -1.4926   0.0000   0.2167
   4.600   0.5498   0.00800   0.00263   0.0123  0.2417  0.7950  -1.5227   0.0000   0.2154
   5.000   0.5829   0.00806   0.00274   0.0149  0.2367  0.8186  -1.5828   0.0000   0.2119
   5.200   0.5983   0.00811   0.00281   0.0164  0.2337  0.8305  -1.6125   0.0000   0.2098
   5.400   0.6142   0.00815   0.00289   0.0177  0.2310  0.8422  -1.6426   0.0000   0.2080
   5.600   0.6310   0.00819   0.00296   0.0189  0.2290  0.8541  -1.6738   0.0000   0.2067
   5.800   0.6478   0.00824   0.00305   0.0201  0.2269  0.8664  -1.7051   0.0000   0.2054
   6.000   0.6646   0.00831   0.00314   0.0213  0.2244  0.8791  -1.7364   0.0000   0.2042
   6.200   0.6818   0.00839   0.00325   0.0224  0.2215  0.8918  -1.7701   0.0000   0.2033
   6.400   0.7004   0.00848   0.00337   0.0231  0.2185  0.9039  -1.8067   0.0000   0.2029
   6.600   0.7217   0.00856   0.00347   0.0233  0.2164  0.9144  -1.8461   0.0000   0.2034
   6.800   0.7443   0.00866   0.00359   0.0231  0.2137  0.9242  -1.8872   0.0000   0.2044
   7.000   0.7682   0.00879   0.00373   0.0227  0.2106  0.9337  -1.9297   0.0000   0.2058
   7.200   0.7964   0.00895   0.00388   0.0212  0.2074  0.9408  -1.9768   0.0000   0.2085
   7.400   0.8244   0.00908   0.00402   0.0199  0.2052  0.9474  -2.0240   0.0000   0.2109
   7.600   0.8556   0.00923   0.00418   0.0178  0.2026  0.9518  -2.0768   0.0000   0.2140
   7.800   0.8836   0.00939   0.00433   0.0164  0.1994  0.9568  -2.1275   0.0000   0.2161
   8.000   0.9134   0.00959   0.00451   0.0146  0.1957  0.9598  -2.1820   0.0000   0.2186
   8.200   0.9443   0.00977   0.00467   0.0125  0.1930  0.9620  -2.2382   0.0000   0.2211
   8.400   0.9727   0.00993   0.00483   0.0110  0.1903  0.9649  -2.2921   0.0000   0.2228
   8.600   0.9970   0.01010   0.00499   0.0104  0.1876  0.9687  -2.3426   0.0000   0.2235
   8.800   1.0238   0.01031   0.00518   0.0092  0.1844  0.9705  -2.3975   0.0000   0.2247
   9.000   1.0489   0.01050   0.00537   0.0083  0.1816  0.9727  -2.4507   0.0000   0.2255
   9.200   1.0715   0.01066   0.00553   0.0081  0.1794  0.9757  -2.5012   0.0000   0.2256
   9.400   1.0924   0.01084   0.00571   0.0081  0.1768  0.9789  -2.5499   0.0000   0.2255
   9.600   1.1155   0.01108   0.00592   0.0076  0.1732  0.9806  -2.6070   0.0000   0.2258
   9.800   1.1378   0.01130   0.00613   0.0073  0.1699  0.9827  -2.6647   0.0000   0.2259
  10.000   1.1587   0.01150   0.00633   0.0073  0.1672  0.9856  -2.7211   0.0000   0.2258
  10.200   1.1798   0.01172   0.00654   0.0072  0.1641  0.9878  -2.7780   0.0000   0.2257
  10.400   1.2026   0.01198   0.00678   0.0066  0.1607  0.9891  -2.8376   0.0000   0.2260
  10.600   1.2254   0.01220   0.00700   0.0061  0.1582  0.9905  -2.9049   0.0000   0.2262
  10.800   1.2474   0.01243   0.00723   0.0058  0.1551  0.9921  -2.9716   0.0000   0.2262
  11.000   1.2674   0.01273   0.00751   0.0057  0.1509  0.9938  -3.0357   0.0000   0.2261
  11.200   1.2874   0.01303   0.00779   0.0057  0.1475  0.9955  -3.1000   0.0000   0.2258
  11.400   1.3098   0.01327   0.00804   0.0052  0.1450  0.9969  -3.1689   0.0000   0.2260
  11.600   1.3318   0.01355   0.00831   0.0047  0.1423  0.9980  -3.2374   0.0000   0.2261
  11.800   1.3532   0.01388   0.00863   0.0043  0.1392  0.9990  -3.3060   0.0000   0.2261
  12.000   1.3750   0.01418   0.00893   0.0038  0.1366  0.9997  -3.3854   0.0000   0.2262
  12.200   1.3906   0.01447   0.00922   0.0045  0.1335  1.0000  -3.4545   0.0000   0.2254
  12.400   1.3968   0.01481   0.00955   0.0070  0.1302  1.0000  -3.5060   0.0000   0.2232
  12.600   1.4032   0.01518   0.00991   0.0094  0.1270  1.0000  -3.5581   0.0000   0.2212
  12.800   1.4121   0.01550   0.01024   0.0113  0.1246  1.0000  -3.6162   0.0000   0.2195
  13.000   1.4205   0.01587   0.01062   0.0133  0.1219  1.0000  -3.6760   0.0000   0.2178
  13.200   1.4277   0.01632   0.01106   0.0153  0.1189  1.0000  -3.7358   0.0000   0.2160
  13.400   1.4363   0.01675   0.01150   0.0171  0.1165  1.0000  -3.7997   0.0000   0.2145
  13.600   1.4457   0.01718   0.01193   0.0187  0.1141  1.0000  -3.8655   0.0000   0.2131
  13.800   1.4533   0.01771   0.01246   0.0204  0.1111  1.0000  -3.9276   0.0000   0.2115
  14.000   1.4598   0.01832   0.01307   0.0222  0.1079  1.0000  -3.9879   0.0000   0.2100
  14.200   1.4689   0.01884   0.01360   0.0236  0.1056  1.0000  -4.0562   0.0000   0.2087
  14.400   1.4765   0.01947   0.01424   0.0251  0.1027  1.0000  -4.1211   0.0000   0.2074
  14.600   1.4824   0.02022   0.01499   0.0266  0.0998  1.0000  -4.1819   0.0000   0.2060
  14.800   1.4905   0.02089   0.01568   0.0279  0.0976  1.0000  -4.2494   0.0000   0.2048
  15.000   1.4983   0.02161   0.01641   0.0290  0.0952  1.0000  -4.3176   0.0000   0.2037
  15.200   1.5042   0.02248   0.01729   0.0303  0.0925  1.0000  -4.3810   0.0000   0.2025
  15.400   1.5095   0.02343   0.01824   0.0314  0.0900  1.0000  -4.4428   0.0000   0.2014
  15.600   1.5165   0.02430   0.01914   0.0324  0.0878  1.0000  -4.5110   0.0000   0.2004
  15.800   1.5216   0.02535   0.02019   0.0334  0.0853  1.0000  -4.5746   0.0000   0.1993
  16.000   1.5246   0.02658   0.02144   0.0344  0.0827  1.0000  -4.6324   0.0000   0.1983
  16.200   1.5300   0.02768   0.02256   0.0351  0.0808  1.0000  -4.6971   0.0000   0.1974
  16.400   1.5342   0.02892   0.02382   0.0359  0.0785  1.0000  -4.7593   0.0000   0.1965
  16.600   1.5358   0.03041   0.02533   0.0366  0.0761  1.0000  -4.8150   0.0000   0.1955
  16.800   1.5376   0.03194   0.02688   0.0372  0.0741  1.0000  -4.8709   0.0000   0.1947
  17.000   1.5404   0.03344   0.02841   0.0376  0.0722  1.0000  -4.9319   0.0000   0.1939
  17.200   1.5408   0.03519   0.03020   0.0380  0.0701  1.0000  -4.9853   0.0000   0.1932
  17.400   1.5387   0.03723   0.03226   0.0383  0.0680  1.0000  -5.0305   0.0000   0.1924
  17.600   1.5388   0.03911   0.03418   0.0385  0.0665  1.0000  -5.0824   0.0000   0.1917
  17.800   1.5379   0.04114   0.03626   0.0386  0.0648  1.0000  -5.1307   0.0000   0.1911
  18.000   1.5345   0.04348   0.03864   0.0385  0.0631  1.0000  -5.1714   0.0000   0.1905
  18.200   1.5287   0.04611   0.04131   0.0384  0.0615  1.0000  -5.2043   0.0000   0.1899
  18.400   1.5250   0.04859   0.04384   0.0382  0.0603  1.0000  -5.2434   0.0000   0.1895
  18.600   1.5206   0.05120   0.04649   0.0378  0.0590  1.0000  -5.2798   0.0000   0.1890
  18.800   1.5139   0.05410   0.04945   0.0374  0.0576  1.0000  -5.3074   0.0000   0.1886
  19.000   1.5040   0.05739   0.05280   0.0368  0.0564  1.0000  -5.3231   0.0000   0.1882
  19.200   1.4929   0.06090   0.05637   0.0361  0.0552  1.0000  -5.3330   0.0000   0.1879
  19.400   1.4846   0.06415   0.05968   0.0354  0.0542  1.0000  -5.3522   0.0000   0.1877
  19.600   1.4749   0.06760   0.06319   0.0345  0.0532  1.0000  -5.3654   0.0000   0.1875
  19.800   1.4629   0.07137   0.06703   0.0335  0.0522  1.0000  -5.3690   0.0000   0.1874
  20.000   1.4490   0.07545   0.07117   0.0324  0.0512  1.0000  -5.3641   0.0000   0.1873
  20.200   1.4334   0.07976   0.07555   0.0311  0.0502  1.0000  -5.3516   0.0000   0.1873
  20.400   1.4183   0.08408   0.07994   0.0298  0.0493  1.0000  -5.3393   0.0000   0.1874
  20.600   1.4060   0.08811   0.08403   0.0284  0.0486  1.0000  -5.3366   0.0000   0.1876
  20.800   1.3928   0.09227   0.08826   0.0270  0.0478  1.0000  -5.3292   0.0000   0.1878
  21.000   1.3791   0.09655   0.09260   0.0255  0.0469  1.0000  -5.3183   0.0000   0.1881
  21.200   1.3651   0.10092   0.09703   0.0239  0.0460  1.0000  -5.3049   0.0000   0.1885
  21.400   1.3518   0.10523   0.10139   0.0223  0.0452  1.0000  -5.2928   0.0000   0.1889
  21.800   1.3276   0.11364   0.10992   0.0189  0.0437  1.0000  -5.2737   0.0000   0.1899
  22.000   1.3197   0.11728   0.11362   0.0173  0.0429  1.0000  -5.2807   0.0000   0.1904
  22.200   1.3093   0.12134   0.11773   0.0155  0.0421  1.0000  -5.2749   0.0000   0.1911
  22.400   1.2990   0.12539   0.12183   0.0136  0.0413  1.0000  -5.2686   0.0000   0.1918
  22.600   1.2902   0.12924   0.12571   0.0118  0.0404  1.0000  -5.2690   0.0000   0.1926
  22.800   1.2800   0.13335   0.12987   0.0098  0.0396  1.0000  -5.2610   0.0000   0.1935
  23.000   1.2763   0.13649   0.13305   0.0081  0.0388  1.0000  -5.2829   0.0000   0.1941
  23.200   1.2698   0.14011   0.13672   0.0062  0.0380  1.0000  -5.2894   0.0000   0.1950
  23.400   1.2647   0.14347   0.14011   0.0044  0.0371  1.0000  -5.3025   0.0000   0.1958
  23.600   1.2576   0.14718   0.14385   0.0024  0.0363  1.0000  -5.3041   0.0000   0.1968
  23.800   1.2515   0.15076   0.14747   0.0003  0.0354  1.0000  -5.3096   0.0000   0.1979
  24.000   1.2497   0.15367   0.15041  -0.0014  0.0348  1.0000  -5.3376   0.0000   0.1986
  24.200   1.2446   0.15712   0.15390  -0.0035  0.0341  1.0000  -5.3471   0.0000   0.1997
  24.400   1.2425   0.16011   0.15692  -0.0054  0.0333  1.0000  -5.3716   0.0000   0.2006
  24.600   1.2375   0.16357   0.16041  -0.0076  0.0326  1.0000  -5.3799   0.0000   0.2017
  24.800   1.2333   0.16693   0.16379  -0.0097  0.0318  1.0000  -5.3921   0.0000   0.2029
  25.000   1.2321   0.16973   0.16663  -0.0116  0.0312  1.0000  -5.4213   0.0000   0.2038


