xflr5 v6.47

 Calculated polar for: NACA24018_theta30_Ku4.5_Kl0.5_d0.21_delta5.84

 1 1 Reynolds number fixed          Mach number fixed         

 xtrf =   1.000 (top)        1.000 (bottom)
 Mach =   0.000     Re =     1.800 e 6     Ncrit =   5.000

  alpha     CL        CD       CDp       Cm    Top Xtr Bot Xtr   Cpmin    Chinge    XCp    
 ------- -------- --------- --------- -------- ------- ------- -------- --------- ---------
 -15.000  -0.8330   0.02967   0.02517  -0.1049  0.8839  0.0300  -5.9477   0.0000   0.0994
 -14.800  -0.8125   0.02938   0.02488  -0.1056  0.8839  0.0304  -5.8106   0.0000   0.0955
 -14.600  -0.7910   0.02913   0.02463  -0.1063  0.8839  0.0308  -5.6714   0.0000   0.0911
 -14.400  -0.7689   0.02893   0.02443  -0.1070  0.8839  0.0312  -5.5308   0.0000   0.0863
 -14.200  -0.7459   0.02876   0.02425  -0.1078  0.8839  0.0316  -5.3889   0.0000   0.0809
 -14.000  -0.7224   0.02861   0.02409  -0.1087  0.8839  0.0320  -5.2460   0.0000   0.0750
 -13.800  -0.6981   0.02848   0.02396  -0.1096  0.8839  0.0323  -5.1023   0.0000   0.0683
 -13.600  -0.6695   0.02825   0.02374  -0.1113  0.8837  0.0330  -4.9498   0.0000   0.0588
 -13.400  -0.6374   0.02798   0.02348  -0.1135  0.8834  0.0337  -4.7904   0.0000   0.0466
 -13.200  -0.6028   0.02768   0.02318  -0.1160  0.8830  0.0344  -4.6250   0.0000   0.0317
 -13.000  -0.5830   0.02742   0.02293  -0.1161  0.8797  0.0350  -4.5063   0.0000   0.0249
 -12.800  -0.5540   0.02713   0.02264  -0.1177  0.8779  0.0357  -4.3613   0.0000   0.0112
 -12.600  -0.5209   0.02682   0.02233  -0.1199  0.8769  0.0365  -4.2064   0.0000  -0.0072
 -12.400  -0.4863   0.02651   0.02203  -0.1224  0.8762  0.0374  -4.0495   0.0000  -0.0296
 -12.200  -0.4512   0.02619   0.02172  -0.1249  0.8757  0.0384  -3.8931   0.0000  -0.0558
 -12.000  -0.4177   0.02594   0.02148  -0.1271  0.8754  0.0393  -3.7434   0.0000  -0.0846
 -11.800  -0.3838   0.02568   0.02122  -0.1294  0.8751  0.0400  -3.5948   0.0000  -0.1188
 -11.600  -0.3479   0.02537   0.02093  -0.1320  0.8748  0.0413  -3.4431   0.0000  -0.1633
 -11.400  -0.3084   0.02491   0.02048  -0.1352  0.8744  0.0427  -3.2844   0.0000  -0.2251
 -11.200  -0.2928   0.02505   0.02063  -0.1344  0.8710  0.0435  -3.1937   0.0000  -0.2466
 -11.000  -0.2642   0.02488   0.02047  -0.1358  0.8687  0.0445  -3.0725   0.0000  -0.3040
 -10.800  -0.2306   0.02463   0.02024  -0.1380  0.8674  0.0459  -2.9407   0.0000  -0.3928
 -10.600  -0.1971   0.02440   0.02002  -0.1401  0.8664  0.0473  -2.8113   0.0000  -0.5110
  -9.400  -0.0806   0.02662   0.02236  -0.1391  0.8199  0.0548  -2.2701   0.0000  -1.5756
  -9.200  -0.0306   0.02575   0.02148  -0.1437  0.8144  0.0573  -2.1223   0.0000  -4.6951
  -9.000   0.0333   0.02429   0.01998  -0.1508  0.8062  0.0606  -1.9529   0.0000   5.0020
  -8.800   0.1044   0.02224   0.01761  -0.1591  0.7465  0.0649  -1.7811   0.0000   1.8416
  -8.600   0.1157   0.02281   0.01797  -0.1574  0.6945  0.0668  -1.7209   0.0000   1.6684
  -8.400   0.1349   0.02316   0.01818  -0.1571  0.6600  0.0691  -1.6472   0.0000   1.4618
  -8.200   0.1578   0.02342   0.01834  -0.1574  0.6308  0.0720  -1.5680   0.0000   1.2863
  -8.000   0.1818   0.02363   0.01846  -0.1579  0.6038  0.0748  -1.4880   0.0000   1.1507
  -7.800   0.2073   0.02382   0.01857  -0.1586  0.5811  0.0779  -1.4066   0.0000   1.0420
  -7.600   0.2337   0.02398   0.01868  -0.1595  0.5622  0.0817  -1.3250   0.0000   0.9554
  -7.400   0.2608   0.02415   0.01879  -0.1605  0.5441  0.0860  -1.2438   0.0000   0.8849
  -7.200   0.2873   0.02430   0.01888  -0.1614  0.5266  0.0901  -1.1693   0.0000   0.8285
  -7.000   0.3152   0.02446   0.01899  -0.1625  0.5078  0.0961  -1.0966   0.0000   0.7801
  -6.800   0.3431   0.02460   0.01908  -0.1637  0.4891  0.1020  -1.0250   0.0000   0.7395
  -6.600   0.3712   0.02474   0.01916  -0.1648  0.4712  0.1088  -0.9543   0.0000   0.7049
  -6.200   0.4285   0.02507   0.01942  -0.1673  0.4401  0.1252  -0.8279   0.0000   0.6487
  -6.000   0.4578   0.02527   0.01959  -0.1687  0.4248  0.1363  -0.8566   0.0000   0.6256
  -5.800   0.4874   0.02548   0.01977  -0.1702  0.4110  0.1490  -0.8857   0.0000   0.6052
  -5.400   0.5520   0.02601   0.02032  -0.1741  0.3869  0.1892  -0.9490   0.0000   0.5697
  -5.200   0.5894   0.02638   0.02073  -0.1770  0.3734  0.2248  -0.9855   0.0000   0.5540
  -5.000   0.6407   0.02703   0.02151  -0.1827  0.3605  0.2961  -1.0321   0.0000   0.5379
  -4.800   0.6862   0.02762   0.02221  -0.1871  0.3515  0.3529  -1.0769   0.0000   0.5249
  -4.600   0.7228   0.02806   0.02267  -0.1898  0.3412  0.3852  -1.1154   0.0000   0.5143
  -4.400   0.7547   0.02841   0.02303  -0.1916  0.3340  0.4063  -1.1508   0.0000   0.5051
  -4.200   0.7848   0.02873   0.02335  -0.1931  0.3272  0.4222  -1.1850   0.0000   0.4967
  -4.000   0.8137   0.02903   0.02363  -0.1943  0.3206  0.4363  -1.2185   0.0000   0.4890
  -3.800   0.8446   0.02939   0.02401  -0.1958  0.3167  0.4543  -1.2539   0.0000   0.4817
  -3.600   0.8741   0.02972   0.02434  -0.1971  0.3117  0.4697  -1.2883   0.0000   0.4749
  -3.400   0.9061   0.03011   0.02473  -0.1989  0.3052  0.4878  -1.3250   0.0000   0.4685
  -3.200   0.9377   0.03050   0.02513  -0.2006  0.3002  0.5044  -1.3633   0.0000   0.4626
  -3.000   0.9646   0.03079   0.02541  -0.2013  0.2952  0.5140  -1.3993   0.0000   0.4571
  -2.800   0.9909   0.03107   0.02566  -0.2020  0.2899  0.5215  -1.4350   0.0000   0.4519
  -2.600   1.0145   0.03128   0.02585  -0.2022  0.2854  0.5264  -1.4685   0.0000   0.4470
  -2.400   1.0374   0.03150   0.02606  -0.2022  0.2831  0.5300  -1.5016   0.0000   0.4423
  -2.200   1.0628   0.03178   0.02633  -0.2027  0.2800  0.5349  -1.5371   0.0000   0.4378
  -2.000   1.0871   0.03203   0.02658  -0.2030  0.2764  0.5394  -1.5718   0.0000   0.4334
  -1.800   1.1104   0.03226   0.02678  -0.2031  0.2722  0.5440  -1.6058   0.0000   0.4293
  -1.600   1.1329   0.03248   0.02698  -0.2031  0.2683  0.5481  -1.6405   0.0000   0.4253
  -1.400   1.1568   0.03274   0.02724  -0.2033  0.2651  0.5524  -1.6784   0.0000   0.4215
  -1.200   1.1813   0.03303   0.02751  -0.2036  0.2611  0.5571  -1.7171   0.0000   0.4179
  -1.000   1.2044   0.03329   0.02775  -0.2037  0.2571  0.5613  -1.7547   0.0000   0.4143
  -0.800   1.2267   0.03352   0.02796  -0.2036  0.2533  0.5651  -1.7917   0.0000   0.4109
  -0.600   1.2486   0.03376   0.02819  -0.2034  0.2515  0.5685  -1.8285   0.0000   0.4075
  -0.400   1.2723   0.03404   0.02848  -0.2036  0.2492  0.5729  -1.8673   0.0000   0.4043
  -0.200   1.2962   0.03434   0.02879  -0.2038  0.2464  0.5779  -1.9065   0.0000   0.4013
   0.000   1.3186   0.03461   0.02904  -0.2037  0.2431  0.5823  -1.9444   0.0000   0.3982
   0.200   1.3400   0.03486   0.02926  -0.2035  0.2391  0.5860  -1.9815   0.0000   0.3953
   0.400   1.3610   0.03510   0.02949  -0.2032  0.2364  0.5890  -2.0190   0.0000   0.3924
   0.600   1.3836   0.03539   0.02979  -0.2031  0.2336  0.5928  -2.0604   0.0000   0.3897
   0.800   1.4063   0.03570   0.03010  -0.2031  0.2304  0.5973  -2.1045   0.0000   0.3870
   1.000   1.4280   0.03600   0.03038  -0.2029  0.2267  0.6018  -2.1475   0.0000   0.3844
   1.200   1.4489   0.03629   0.03064  -0.2026  0.2229  0.6057  -2.1899   0.0000   0.3818
   1.400   1.4696   0.03655   0.03091  -0.2022  0.2210  0.6087  -2.2322   0.0000   0.3793
   1.600   1.4911   0.03685   0.03122  -0.2020  0.2188  0.6122  -2.2758   0.0000   0.3768
   1.800   1.5132   0.03718   0.03156  -0.2019  0.2161  0.6166  -2.3202   0.0000   0.3745
   2.000   1.5342   0.03750   0.03187  -0.2016  0.2132  0.6207  -2.3638   0.0000   0.3721
   2.200   1.5544   0.03782   0.03217  -0.2011  0.2097  0.6243  -2.4065   0.0000   0.3698
   2.400   1.5744   0.03811   0.03246  -0.2006  0.2074  0.6273  -2.4492   0.0000   0.3676
   2.600   1.5940   0.03840   0.03275  -0.2001  0.2048  0.6297  -2.4933   0.0000   0.3654
   2.800   1.6147   0.03875   0.03310  -0.1997  0.2016  0.6333  -2.5392   0.0000   0.3632
   3.000   1.6347   0.03912   0.03345  -0.1992  0.1979  0.6372  -2.5860   0.0000   0.3611
   3.200   1.6543   0.03947   0.03380  -0.1987  0.1946  0.6409  -2.6339   0.0000   0.3590
   3.400   1.6737   0.03980   0.03413  -0.1981  0.1924  0.6443  -2.6827   0.0000   0.3570
   3.600   1.6927   0.04014   0.03447  -0.1975  0.1896  0.6473  -2.7325   0.0000   0.3549
   3.800   1.7110   0.04050   0.03482  -0.1967  0.1863  0.6497  -2.7818   0.0000   0.3529
   4.000   1.7296   0.04091   0.03522  -0.1960  0.1827  0.6532  -2.8332   0.0000   0.3509
   4.200   1.7482   0.04130   0.03562  -0.1953  0.1805  0.6564  -2.8873   0.0000   0.3490
   4.400   1.7661   0.04170   0.03604  -0.1945  0.1778  0.6593  -2.9405   0.0000   0.3471
   4.600   1.7833   0.04214   0.03648  -0.1936  0.1748  0.6622  -2.9931   0.0000   0.3452
   4.800   1.8000   0.04261   0.03694  -0.1926  0.1715  0.6650  -3.0452   0.0000   0.3433
   5.000   1.8172   0.04306   0.03739  -0.1916  0.1688  0.6676  -3.0992   0.0000   0.3414
   5.200   1.8343   0.04351   0.03784  -0.1907  0.1657  0.6697  -3.1584   0.0000   0.3396
   5.400   1.8502   0.04399   0.03831  -0.1896  0.1617  0.6724  -3.2160   0.0000   0.3377
   5.600   1.8657   0.04450   0.03881  -0.1885  0.1579  0.6751  -3.2733   0.0000   0.3359
   5.800   1.8823   0.04494   0.03927  -0.1875  0.1559  0.6779  -3.3326   0.0000   0.3341
   6.000   1.8983   0.04543   0.03977  -0.1864  0.1531  0.6807  -3.3914   0.0000   0.3324
   6.200   1.9134   0.04599   0.04031  -0.1852  0.1494  0.6834  -3.4522   0.0000   0.3306
   6.400   1.9284   0.04655   0.04087  -0.1840  0.1458  0.6856  -3.5183   0.0000   0.3289
   6.600   1.9432   0.04713   0.04146  -0.1828  0.1423  0.6876  -3.5847   0.0000   0.3271
   6.800   1.9566   0.04784   0.04215  -0.1813  0.1385  0.6893  -3.6490   0.0000   0.3254
   7.000   1.9694   0.04849   0.04281  -0.1798  0.1356  0.6917  -3.7145   0.0000   0.3236
   7.200   1.9829   0.04909   0.04343  -0.1784  0.1332  0.6941  -3.7833   0.0000   0.3219
   7.400   1.9955   0.04974   0.04409  -0.1769  0.1300  0.6964  -3.8539   0.0000   0.3202
   7.600   2.0070   0.05049   0.04482  -0.1753  0.1262  0.6983  -3.9258   0.0000   0.3185
   7.800   2.0201   0.05113   0.04548  -0.1739  0.1235  0.7003  -4.0058   0.0000   0.3169
   8.000   2.0313   0.05193   0.04628  -0.1722  0.1197  0.7022  -4.0821   0.0000   0.3152
   8.200   2.0410   0.05288   0.04723  -0.1704  0.1159  0.7042  -4.1556   0.0000   0.3135
   8.400   2.0521   0.05376   0.04811  -0.1688  0.1124  0.7061  -4.2329   0.0000   0.3118
   8.600   2.0614   0.05479   0.04912  -0.1670  0.1081  0.7077  -4.3066   0.0000   0.3102
   8.800   2.0728   0.05569   0.05003  -0.1655  0.1048  0.7091  -4.3854   0.0000   0.3086
   9.000   2.0802   0.05670   0.05105  -0.1634  0.1017  0.7109  -4.4552   0.0000   0.3069
   9.200   2.0871   0.05778   0.05214  -0.1614  0.0990  0.7128  -4.5239   0.0000   0.3052
   9.400   2.0960   0.05869   0.05309  -0.1596  0.0967  0.7148  -4.5978   0.0000   0.3036
   9.600   2.1037   0.05973   0.05414  -0.1577  0.0939  0.7166  -4.6692   0.0000   0.3020
   9.800   2.1088   0.06104   0.05546  -0.1556  0.0911  0.7183  -4.7409   0.0000   0.3003
  10.000   2.1162   0.06217   0.05661  -0.1537  0.0887  0.7199  -4.8202   0.0000   0.2988
  10.200   2.1218   0.06348   0.05794  -0.1518  0.0857  0.7214  -4.8951   0.0000   0.2972
  10.400   2.1259   0.06498   0.05945  -0.1498  0.0829  0.7228  -4.9663   0.0000   0.2956
  10.600   2.1313   0.06639   0.06088  -0.1479  0.0800  0.7242  -5.0430   0.0000   0.2941
  10.800   2.1333   0.06819   0.06269  -0.1459  0.0770  0.7255  -5.1114   0.0000   0.2926
  11.000   2.1387   0.06973   0.06426  -0.1442  0.0746  0.7269  -5.1896   0.0000   0.2912
  11.200   2.1415   0.07156   0.06612  -0.1425  0.0720  0.7280  -5.2606   0.0000   0.2898
  11.400   2.1425   0.07340   0.06798  -0.1406  0.0698  0.7293  -5.3261   0.0000   0.2883
  11.600   2.1436   0.07512   0.06975  -0.1387  0.0678  0.7306  -5.3917   0.0000   0.2869
  11.800   2.1430   0.07709   0.07175  -0.1369  0.0656  0.7319  -5.4521   0.0000   0.2856
  12.000   2.1426   0.07906   0.07377  -0.1352  0.0638  0.7330  -5.5131   0.0000   0.2843
  12.200   2.1424   0.08105   0.07580  -0.1337  0.0621  0.7341  -5.5745   0.0000   0.2830
  12.400   2.1403   0.08329   0.07809  -0.1322  0.0602  0.7353  -5.6300   0.0000   0.2819
  12.600   2.1379   0.08562   0.08046  -0.1308  0.0585  0.7366  -5.6860   0.0000   0.2808
  12.800   2.1371   0.08780   0.08269  -0.1297  0.0568  0.7379  -5.7474   0.0000   0.2797
  13.000   2.1339   0.09033   0.08526  -0.1287  0.0549  0.7391  -5.8005   0.0000   0.2787
  13.200   2.1298   0.09303   0.08801  -0.1279  0.0534  0.7403  -5.8499   0.0000   0.2779
  13.400   2.1278   0.09553   0.09056  -0.1272  0.0520  0.7415  -5.9063   0.0000   0.2770
  13.600   2.1251   0.09816   0.09324  -0.1268  0.0506  0.7425  -5.9593   0.0000   0.2763
  13.800   2.1206   0.10101   0.09614  -0.1265  0.0493  0.7434  -6.0059   0.0000   0.2757
  14.000   2.1171   0.10379   0.09897  -0.1263  0.0481  0.7443  -6.0550   0.0000   0.2751
  14.200   2.1134   0.10662   0.10187  -0.1264  0.0470  0.7452  -6.1025   0.0000   0.2746
  14.400   2.1083   0.10965   0.10495  -0.1266  0.0458  0.7459  -6.1459   0.0000   0.2742
  14.600   2.1017   0.11291   0.10826  -0.1271  0.0446  0.7466  -6.1851   0.0000   0.2739
  14.800   2.0962   0.11591   0.11133  -0.1276  0.0436  0.7475  -6.2275   0.0000   0.2737
  15.000   2.0900   0.11879   0.11428  -0.1280  0.0426  0.7485  -6.2666   0.0000   0.2734
  15.200   2.0825   0.12187   0.11742  -0.1287  0.0415  0.7495  -6.2996   0.0000   0.2733
  15.400   2.0735   0.12521   0.12082  -0.1296  0.0405  0.7504  -6.3247   0.0000   0.2733
  15.600   2.0648   0.12851   0.12420  -0.1307  0.0396  0.7512  -6.3502   0.0000   0.2734
  15.800   2.0571   0.13172   0.12748  -0.1319  0.0389  0.7520  -6.3782   0.0000   0.2735
  16.000   2.0487   0.13504   0.13086  -0.1333  0.0380  0.7528  -6.4025   0.0000   0.2738
  16.200   2.0396   0.13847   0.13436  -0.1348  0.0372  0.7535  -6.4225   0.0000   0.2741
  16.400   2.0299   0.14202   0.13797  -0.1366  0.0364  0.7542  -6.4380   0.0000   0.2746
  16.600   2.0215   0.14539   0.14141  -0.1384  0.0357  0.7550  -6.4584   0.0000   0.2750
  16.800   2.0131   0.14883   0.14492  -0.1403  0.0351  0.7558  -6.4767   0.0000   0.2756
  17.000   2.0041   0.15236   0.14852  -0.1425  0.0344  0.7566  -6.4914   0.0000   0.2762
  17.200   1.9952   0.15590   0.15212  -0.1447  0.0337  0.7574  -6.5052   0.0000   0.2769
  17.400   1.9869   0.15939   0.15567  -0.1471  0.0329  0.7583  -6.5200   0.0000   0.2776
  17.600   1.9769   0.16318   0.15952  -0.1498  0.0323  0.7592  -6.5249   0.0000   0.2786
  17.800   1.9698   0.16653   0.16294  -0.1522  0.0318  0.7601  -6.5432   0.0000   0.2793
  18.000   1.9643   0.16965   0.16611  -0.1545  0.0311  0.7611  -6.5682   0.0000   0.2799
  18.200   1.9560   0.17323   0.16976  -0.1572  0.0305  0.7620  -6.5775   0.0000   0.2809
  18.400   1.9503   0.17639   0.17296  -0.1597  0.0299  0.7629  -6.5993   0.0000   0.2816
  18.600   1.9415   0.18007   0.17670  -0.1628  0.0293  0.7636  -6.6029   0.0000   0.2827
  18.800   1.9368   0.18309   0.17977  -0.1652  0.0287  0.7643  -6.6278   0.0000   0.2834
  19.000   1.9311   0.18628   0.18301  -0.1680  0.0282  0.7648  -6.6457   0.0000   0.2843
  19.200   1.9271   0.18897   0.18574  -0.1702  0.0276  0.7656  -6.6737   0.0000   0.2849
  19.400   1.9190   0.19224   0.18907  -0.1730  0.0270  0.7663  -6.6777   0.0000   0.2859
  19.600   1.9139   0.19496   0.19184  -0.1753  0.0264  0.7670  -6.6986   0.0000   0.2866
  19.800   1.9054   0.19827   0.19519  -0.1782  0.0259  0.7677  -6.6979   0.0000   0.2877
  20.000   1.9020   0.20067   0.19764  -0.1803  0.0254  0.7686  -6.7312   0.0000   0.2882
  20.200   1.8976   0.20325   0.20026  -0.1826  0.0249  0.7694  -6.7578   0.0000   0.2888
  20.400   1.8921   0.20603   0.20310  -0.1851  0.0244  0.7702  -6.7761   0.0000   0.2896
  20.600   1.8888   0.20844   0.20554  -0.1873  0.0239  0.7710  -6.8079   0.0000   0.2902
  20.800   1.8822   0.21146   0.20861  -0.1903  0.0234  0.7718  -6.8168   0.0000   0.2912
  21.000   1.8782   0.21405   0.21123  -0.1928  0.0229  0.7726  -6.8416   0.0000   0.2920
  21.200   1.8765   0.21626   0.21348  -0.1949  0.0225  0.7734  -6.8809   0.0000   0.2924
  21.400   1.8719   0.21904   0.21631  -0.1977  0.0221  0.7741  -6.8986   0.0000   0.2933
  21.600   1.8700   0.22133   0.21864  -0.2001  0.0217  0.7749  -6.9344   0.0000   0.2938
  21.800   1.8680   0.22365   0.22098  -0.2025  0.0212  0.7757  -6.9691   0.0000   0.2944
  22.000   1.8627   0.22658   0.22396  -0.2056  0.0208  0.7765  -6.9787   0.0000   0.2955
  22.200   1.8602   0.22899   0.22640  -0.2082  0.0203  0.7773  -7.0080   0.0000   0.2962
  22.400   1.8590   0.23119   0.22863  -0.2105  0.0199  0.7781  -7.0456   0.0000   0.2967
  22.600   1.8555   0.23382   0.23130  -0.2134  0.0196  0.7789  -7.0650   0.0000   0.2976
  22.800   1.8544   0.23599   0.23351  -0.2159  0.0191  0.7797  -7.1025   0.0000   0.2981
  23.000   1.8533   0.23818   0.23572  -0.2183  0.0186  0.7804  -7.1389   0.0000   0.2986
  23.200   1.8486   0.24106   0.23864  -0.2216  0.0182  0.7811  -7.1455   0.0000   0.2998
  23.400   1.8465   0.24344   0.24104  -0.2244  0.0177  0.7818  -7.1721   0.0000   0.3005
  23.600   1.8457   0.24536   0.24299  -0.2266  0.0174  0.7826  -7.2110   0.0000   0.3009
  23.800   1.8416   0.24779   0.24547  -0.2294  0.0171  0.7833  -7.2230   0.0000   0.3018
  24.000   1.8397   0.24974   0.24745  -0.2316  0.0167  0.7840  -7.2539   0.0000   0.3022
  24.200   1.8381   0.25162   0.24936  -0.2338  0.0164  0.7847  -7.2867   0.0000   0.3026
  24.400   1.8338   0.25407   0.25184  -0.2367  0.0160  0.7853  -7.2943   0.0000   0.3036
  24.600   1.8309   0.25622   0.25402  -0.2392  0.0157  0.7858  -7.3140   0.0000   0.3043
  24.800   1.8288   0.25821   0.25604  -0.2416  0.0154  0.7864  -7.3398   0.0000   0.3048
  25.000   1.8262   0.26032   0.25819  -0.2442  0.0152  0.7870  -7.3590   0.0000   0.3055


