xflr5 v6.47

 Calculated polar for: NACA24018_theta30_Ku4.5_Kl0.5_d0.07_delta1.57

 1 1 Reynolds number fixed          Mach number fixed         

 xtrf =   1.000 (top)        1.000 (bottom)
 Mach =   0.000     Re =     0.200 e 6     Ncrit =   5.000

  alpha     CL        CD       CDp       Cm    Top Xtr Bot Xtr   Cpmin    Chinge    XCp    
 ------- -------- --------- --------- -------- ------- ------- -------- --------- ---------
 -15.000  -0.9059   0.05317   0.04684  -0.0719  1.0000  0.0407  -5.7334   0.0000   0.1456
 -14.800  -0.9083   0.05120   0.04478  -0.0715  1.0000  0.0411  -5.6986   0.0000   0.1467
 -14.600  -0.9102   0.04936   0.04284  -0.0709  1.0000  0.0414  -5.6620   0.0000   0.1481
 -14.400  -0.9118   0.04763   0.04101  -0.0702  1.0000  0.0418  -5.6256   0.0000   0.1495
 -14.200  -0.9128   0.04601   0.03929  -0.0692  1.0000  0.0422  -5.5867   0.0000   0.1511
 -14.000  -0.9135   0.04449   0.03766  -0.0681  1.0000  0.0426  -5.5457   0.0000   0.1529
 -13.800  -0.9140   0.04307   0.03612  -0.0668  1.0000  0.0430  -5.5032   0.0000   0.1547
 -13.600  -0.9142   0.04174   0.03466  -0.0654  1.0000  0.0435  -5.4595   0.0000   0.1568
 -13.400  -0.9130   0.04059   0.03342  -0.0638  1.0000  0.0439  -5.4060   0.0000   0.1588
 -13.200  -0.9095   0.03967   0.03251  -0.0623  1.0000  0.0443  -5.3363   0.0000   0.1606
 -13.000  -0.9067   0.03881   0.03166  -0.0607  1.0000  0.0447  -5.2681   0.0000   0.1626
 -12.800  -0.9042   0.03800   0.03083  -0.0589  1.0000  0.0451  -5.2016   0.0000   0.1648
 -12.600  -0.9021   0.03722   0.03003  -0.0570  1.0000  0.0455  -5.1368   0.0000   0.1671
 -12.400  -0.9003   0.03647   0.02926  -0.0549  1.0000  0.0460  -5.0737   0.0000   0.1697
 -12.200  -0.8987   0.03575   0.02850  -0.0527  1.0000  0.0464  -5.0121   0.0000   0.1724
 -12.000  -0.8973   0.03506   0.02776  -0.0504  1.0000  0.0469  -4.9519   0.0000   0.1752
 -11.600  -0.8591   0.03404   0.02656  -0.0519  0.9961  0.0486  -4.7320   0.0000   0.1713
 -11.400  -0.8382   0.03351   0.02590  -0.0528  0.9935  0.0496  -4.6195   0.0000   0.1688
 -11.200  -0.8184   0.03299   0.02538  -0.0535  0.9909  0.0504  -4.5039   0.0000   0.1665
 -11.000  -0.8005   0.03241   0.02480  -0.0538  0.9874  0.0512  -4.3967   0.0000   0.1649
 -10.800  -0.7831   0.03184   0.02422  -0.0540  0.9839  0.0521  -4.2923   0.0000   0.1634
 -10.600  -0.7652   0.03127   0.02362  -0.0541  0.9805  0.0531  -4.1891   0.0000   0.1617
 -10.400  -0.7467   0.03070   0.02299  -0.0542  0.9771  0.0542  -4.0868   0.0000   0.1599
 -10.200  -0.7305   0.03001   0.02224  -0.0539  0.9727  0.0553  -3.9931   0.0000   0.1590
 -10.000  -0.7139   0.02935   0.02149  -0.0535  0.9683  0.0563  -3.8996   0.0000   0.1580
  -9.800  -0.6973   0.02866   0.02084  -0.0532  0.9641  0.0573  -3.8017   0.0000   0.1568
  -9.600  -0.6835   0.02799   0.02018  -0.0524  0.9584  0.0583  -3.7142   0.0000   0.1567
  -9.400  -0.6717   0.02733   0.01950  -0.0511  0.9515  0.0594  -3.6338   0.0000   0.1575
  -9.200  -0.6587   0.02672   0.01887  -0.0499  0.9448  0.0607  -3.5517   0.0000   0.1580
  -9.000  -0.6416   0.02614   0.01825  -0.0494  0.9396  0.0622  -3.4619   0.0000   0.1569
  -8.800  -0.6219   0.02557   0.01761  -0.0493  0.9349  0.0636  -3.3677   0.0000   0.1548
  -8.600  -0.6048   0.02492   0.01699  -0.0488  0.9296  0.0649  -3.2774   0.0000   0.1534
  -8.400  -0.5856   0.02435   0.01643  -0.0487  0.9246  0.0664  -3.1817   0.0000   0.1511
  -8.200  -0.5665   0.02382   0.01589  -0.0484  0.9195  0.0682  -3.0873   0.0000   0.1488
  -8.000  -0.5475   0.02331   0.01535  -0.0481  0.9138  0.0702  -2.9951   0.0000   0.1466
  -7.800  -0.5236   0.02276   0.01476  -0.0486  0.9107  0.0723  -2.8937   0.0000   0.1416
  -7.600  -0.5097   0.02221   0.01426  -0.0473  0.9023  0.0741  -2.8133   0.0000   0.1416
  -7.400  -0.4864   0.02165   0.01370  -0.0477  0.8986  0.0764  -2.7125   0.0000   0.1363
  -7.200  -0.4703   0.02122   0.01324  -0.0467  0.8902  0.0787  -2.6310   0.0000   0.1352
  -7.000  -0.4461   0.02070   0.01269  -0.0471  0.8858  0.0815  -2.5370   0.0000   0.1287
  -6.800  -0.4292   0.02019   0.01223  -0.0463  0.8770  0.0841  -2.4572   0.0000   0.1265
  -6.600  -0.4035   0.01965   0.01168  -0.0470  0.8718  0.0876  -2.3603   0.0000   0.1177
  -6.400  -0.3831   0.01925   0.01124  -0.0467  0.8623  0.0910  -2.2762   0.0000   0.1122
  -6.200  -0.3561   0.01864   0.01067  -0.0477  0.8559  0.0951  -2.1788   0.0000   0.0998
  -6.000  -0.3328   0.01821   0.01022  -0.0479  0.8462  0.0996  -2.0915   0.0000   0.0895
  -5.800  -0.3063   0.01772   0.00972  -0.0488  0.8373  0.1046  -2.0029   0.0000   0.0737
  -5.600  -0.2760   0.01720   0.00921  -0.0504  0.8290  0.1111  -1.9076   0.0000   0.0495
  -5.400  -0.2489   0.01676   0.00877  -0.0514  0.8184  0.1179  -1.8200   0.0000   0.0248
  -5.000  -0.1854   0.01584   0.00784  -0.0552  0.7964  0.1385  -1.6345   0.0000  -0.0702
  -4.800  -0.1538   0.01540   0.00741  -0.0572  0.7831  0.1532  -1.5474   0.0000  -0.1470
  -4.600  -0.1242   0.01494   0.00700  -0.0588  0.7686  0.1735  -1.4647   0.0000  -0.2530
  -4.400  -0.0971   0.01447   0.00661  -0.0600  0.7534  0.2054  -1.3872   0.0000  -0.4036
  -4.200  -0.0735   0.01384   0.00622  -0.0609  0.7376  0.2677  -1.3164   0.0000  -0.6216
  -4.000  -0.0501   0.01316   0.00592  -0.0617  0.7215  0.3674  -1.2484   0.0000  -1.0414
  -3.800  -0.0252   0.01284   0.00575  -0.0624  0.7050  0.4275  -1.1803   0.0000  -2.3316
  -3.600  -0.0010   0.01267   0.00564  -0.0628  0.6880  0.4668  -1.1137   0.0000  -62.8610
  -3.400   0.0224   0.01258   0.00556  -0.0630  0.6711  0.4975  -1.0491   0.0000   3.1713
  -3.200   0.0448   0.01253   0.00550  -0.0630  0.6543  0.5223  -0.9892   0.0000   1.7027
  -3.000   0.0666   0.01252   0.00547  -0.0628  0.6379  0.5460  -0.9316   0.0000   1.2205
  -2.800   0.0875   0.01252   0.00546  -0.0624  0.6217  0.5689  -0.8770   0.0000   0.9814
  -2.600   0.1081   0.01256   0.00547  -0.0619  0.6058  0.5897  -0.8254   0.0000   0.8358
  -2.400   0.1277   0.01260   0.00550  -0.0612  0.5903  0.6077  -0.7860   0.0000   0.7390
  -2.200   0.1469   0.01267   0.00553  -0.0605  0.5753  0.6244  -0.8073   0.0000   0.6683
  -2.000   0.1656   0.01275   0.00558  -0.0596  0.5604  0.6403  -0.8290   0.0000   0.6144
  -1.800   0.1839   0.01284   0.00564  -0.0586  0.5460  0.6561  -0.8509   0.0000   0.5718
  -1.400   0.2190   0.01306   0.00582  -0.0563  0.5188  0.6879  -0.8941   0.0000   0.5078
  -1.200   0.2356   0.01318   0.00591  -0.0550  0.5062  0.7001  -0.9152   0.0000   0.4831
  -1.000   0.2531   0.01330   0.00598  -0.0539  0.4938  0.7100  -0.9369   0.0000   0.4618
  -0.800   0.2694   0.01342   0.00605  -0.0526  0.4820  0.7180  -0.9588   0.0000   0.4433
  -0.600   0.2856   0.01356   0.00613  -0.0513  0.4708  0.7257  -0.9808   0.0000   0.4269
  -0.400   0.3019   0.01369   0.00621  -0.0500  0.4599  0.7338  -1.0030   0.0000   0.4123
  -0.200   0.3174   0.01382   0.00631  -0.0484  0.4498  0.7412  -1.0249   0.0000   0.3990
   0.000   0.3337   0.01397   0.00641  -0.0472  0.4402  0.7493  -1.0484   0.0000   0.3872
   0.200   0.3474   0.01412   0.00653  -0.0453  0.4310  0.7564  -1.0701   0.0000   0.3758
   0.400   0.3639   0.01426   0.00663  -0.0441  0.4221  0.7644  -1.0939   0.0000   0.3661
   0.600   0.3762   0.01444   0.00677  -0.0419  0.4144  0.7712  -1.1146   0.0000   0.3560
   0.800   0.3926   0.01458   0.00690  -0.0407  0.4066  0.7790  -1.1384   0.0000   0.3477
   1.000   0.4044   0.01477   0.00705  -0.0384  0.4000  0.7854  -1.1589   0.0000   0.3388
   1.200   0.4196   0.01493   0.00719  -0.0369  0.3929  0.7927  -1.1818   0.0000   0.3314
   1.400   0.4321   0.01512   0.00734  -0.0349  0.3865  0.7992  -1.2029   0.0000   0.3238
   1.600   0.4449   0.01529   0.00750  -0.0329  0.3803  0.8057  -1.2247   0.0000   0.3167
   1.800   0.4597   0.01547   0.00765  -0.0314  0.3742  0.8126  -1.2488   0.0000   0.3107
   2.000   0.4692   0.01569   0.00784  -0.0287  0.3693  0.8183  -1.2689   0.0000   0.3032
   2.200   0.4882   0.01584   0.00798  -0.0281  0.3634  0.8256  -1.2965   0.0000   0.2994
   2.400   0.4948   0.01607   0.00820  -0.0248  0.3588  0.8304  -1.3143   0.0000   0.2916
   2.600   0.5087   0.01627   0.00837  -0.0231  0.3541  0.8368  -1.3380   0.0000   0.2867
   2.800   0.5219   0.01646   0.00856  -0.0213  0.3491  0.8424  -1.3611   0.0000   0.2818
   3.000   0.5311   0.01669   0.00877  -0.0186  0.3449  0.8476  -1.3824   0.0000   0.2757
   3.200   0.5500   0.01690   0.00893  -0.0181  0.3406  0.8544  -1.4118   0.0000   0.2734
   3.400   0.5564   0.01711   0.00917  -0.0148  0.3367  0.8585  -1.4306   0.0000   0.2668
   3.600   0.5676   0.01733   0.00938  -0.0126  0.3326  0.8637  -1.4537   0.0000   0.2622
   3.800   0.5835   0.01756   0.00957  -0.0116  0.3286  0.8696  -1.4808   0.0000   0.2595
   4.000   0.5900   0.01780   0.00981  -0.0084  0.3252  0.8737  -1.5006   0.0000   0.2535
   4.200   0.6031   0.01801   0.01004  -0.0066  0.3213  0.8790  -1.5268   0.0000   0.2501
   4.400   0.6171   0.01824   0.01025  -0.0052  0.3177  0.8842  -1.5539   0.0000   0.2473
   4.600   0.6240   0.01848   0.01047  -0.0022  0.3149  0.8887  -1.5747   0.0000   0.2421
   4.800   0.6388   0.01872   0.01069  -0.0010  0.3117  0.8942  -1.6026   0.0000   0.2399
   5.000   0.6495   0.01893   0.01093   0.0012  0.3082  0.8988  -1.6278   0.0000   0.2363
   5.200   0.6590   0.01914   0.01116   0.0036  0.3049  0.9036  -1.6524   0.0000   0.2324
   5.400   0.6758   0.01941   0.01140   0.0043  0.3014  0.9090  -1.6842   0.0000   0.2313
   5.600   0.6809   0.01964   0.01159   0.0075  0.2990  0.9133  -1.7048   0.0000   0.2264
   5.800   0.6938   0.01986   0.01185   0.0090  0.2959  0.9184  -1.7325   0.0000   0.2241
   6.000   0.7057   0.02008   0.01210   0.0108  0.2927  0.9230  -1.7594   0.0000   0.2216
   6.200   0.7151   0.02029   0.01232   0.0130  0.2897  0.9277  -1.7840   0.0000   0.2185
   6.400   0.7289   0.02058   0.01259   0.0141  0.2867  0.9324  -1.8132   0.0000   0.2170
   6.600   0.7364   0.02079   0.01277   0.0167  0.2843  0.9369  -1.8369   0.0000   0.2135
   6.800   0.7503   0.02105   0.01308   0.0178  0.2811  0.9418  -1.8675   0.0000   0.2121
   7.000   0.7576   0.02121   0.01327   0.0203  0.2783  0.9463  -1.8916   0.0000   0.2088
   7.200   0.7691   0.02147   0.01355   0.0219  0.2755  0.9511  -1.9201   0.0000   0.2069
   7.400   0.7764   0.02164   0.01371   0.0243  0.2730  0.9556  -1.9444   0.0000   0.2039
   7.800   0.7957   0.02205   0.01415   0.0280  0.2678  0.9645  -1.9995   0.0000   0.1995
   8.000   0.8053   0.02223   0.01437   0.0298  0.2649  0.9686  -2.0276   0.0000   0.1974
   8.200   0.8150   0.02245   0.01462   0.0315  0.2623  0.9730  -2.0559   0.0000   0.1955
   8.400   0.8262   0.02265   0.01482   0.0329  0.2597  0.9764  -2.0876   0.0000   0.1941
   8.600   0.8375   0.02291   0.01505   0.0342  0.2574  0.9801  -2.1200   0.0000   0.1928
   8.800   0.8519   0.02316   0.01535   0.0348  0.2545  0.9826  -2.1555   0.0000   0.1924
   9.000   0.8649   0.02346   0.01570   0.0357  0.2515  0.9856  -2.1895   0.0000   0.1918
   9.200   0.8804   0.02377   0.01605   0.0361  0.2486  0.9875  -2.2267   0.0000   0.1919
   9.400   0.8959   0.02412   0.01641   0.0364  0.2461  0.9894  -2.2661   0.0000   0.1919
   9.600   0.9105   0.02448   0.01675   0.0368  0.2437  0.9914  -2.3049   0.0000   0.1918
   9.800   0.9267   0.02487   0.01721   0.0369  0.2409  0.9927  -2.3464   0.0000   0.1922
  10.000   0.9428   0.02530   0.01771   0.0369  0.2378  0.9939  -2.3889   0.0000   0.1926
  10.200   0.9582   0.02574   0.01819   0.0370  0.2348  0.9951  -2.4308   0.0000   0.1928
  10.400   0.9727   0.02620   0.01866   0.0371  0.2322  0.9963  -2.4720   0.0000   0.1929
  10.600   0.9880   0.02666   0.01910   0.0372  0.2299  0.9973  -2.5145   0.0000   0.1932
  10.800   1.0023   0.02718   0.01973   0.0372  0.2269  0.9984  -2.5552   0.0000   0.1934
  11.000   1.0133   0.02763   0.02025   0.0377  0.2240  0.9999  -2.5945   0.0000   0.1929
  11.200   1.0172   0.02813   0.02080   0.0395  0.2216  1.0000  -2.6247   0.0000   0.1910
  11.400   1.0221   0.02868   0.02136   0.0410  0.2194  1.0000  -2.6566   0.0000   0.1893
  11.600   1.0285   0.02925   0.02192   0.0423  0.2172  1.0000  -2.6909   0.0000   0.1879
  11.800   1.0352   0.02990   0.02263   0.0434  0.2149  1.0000  -2.7248   0.0000   0.1868
  12.000   1.0415   0.03064   0.02346   0.0443  0.2122  1.0000  -2.7581   0.0000   0.1857
  12.200   1.0483   0.03141   0.02430   0.0452  0.2096  1.0000  -2.7961   0.0000   0.1849
  12.400   1.0552   0.03222   0.02514   0.0459  0.2072  1.0000  -2.8346   0.0000   0.1841
  12.600   1.0625   0.03303   0.02597   0.0465  0.2049  1.0000  -2.8742   0.0000   0.1834
  12.800   1.0701   0.03390   0.02685   0.0470  0.2026  1.0000  -2.9137   0.0000   0.1828
  13.000   1.0759   0.03494   0.02801   0.0475  0.1999  1.0000  -2.9490   0.0000   0.1822
  13.200   1.0817   0.03602   0.02916   0.0478  0.1971  1.0000  -2.9846   0.0000   0.1817
  13.400   1.0876   0.03712   0.03031   0.0481  0.1946  1.0000  -3.0246   0.0000   0.1813
  13.600   1.0939   0.03821   0.03141   0.0483  0.1923  1.0000  -3.0660   0.0000   0.1809
  13.800   1.1005   0.03931   0.03254   0.0485  0.1901  1.0000  -3.1096   0.0000   0.1806
  14.000   1.1042   0.04073   0.03409   0.0486  0.1874  1.0000  -3.1459   0.0000   0.1803
  14.200   1.1080   0.04218   0.03562   0.0485  0.1847  1.0000  -3.1826   0.0000   0.1800
  14.400   1.1119   0.04363   0.03713   0.0484  0.1822  1.0000  -3.2197   0.0000   0.1798
  14.600   1.1162   0.04506   0.03858   0.0483  0.1798  1.0000  -3.2590   0.0000   0.1796
  14.800   1.1205   0.04653   0.04007   0.0481  0.1775  1.0000  -3.2994   0.0000   0.1795
  15.000   1.1208   0.04848   0.04215   0.0477  0.1747  1.0000  -3.3298   0.0000   0.1793
  15.200   1.1214   0.05042   0.04419   0.0473  0.1720  1.0000  -3.3613   0.0000   0.1793
  15.400   1.1228   0.05230   0.04613   0.0468  0.1694  1.0000  -3.3949   0.0000   0.1793
  15.600   1.1254   0.05407   0.04791   0.0463  0.1671  1.0000  -3.4321   0.0000   0.1794
  15.800   1.1267   0.05602   0.04991   0.0456  0.1648  1.0000  -3.4651   0.0000   0.1794
  16.000   1.1231   0.05860   0.05263   0.0447  0.1621  1.0000  -3.4842   0.0000   0.1796
  16.200   1.1198   0.06116   0.05529   0.0438  0.1594  1.0000  -3.5044   0.0000   0.1798
  16.400   1.1184   0.06353   0.05770   0.0428  0.1568  1.0000  -3.5304   0.0000   0.1801
  16.600   1.1203   0.06553   0.05970   0.0420  0.1544  1.0000  -3.5661   0.0000   0.1804
  16.800   1.1151   0.06844   0.06272   0.0408  0.1519  1.0000  -3.5786   0.0000   0.1808
  17.000   1.1062   0.07187   0.06627   0.0392  0.1491  1.0000  -3.5784   0.0000   0.1813
  17.200   1.0995   0.07504   0.06954   0.0377  0.1464  1.0000  -3.5847   0.0000   0.1819
  17.400   1.0980   0.07759   0.07211   0.0365  0.1440  1.0000  -3.6082   0.0000   0.1825
  17.600   1.1004   0.07964   0.07415   0.0355  0.1417  1.0000  -3.6456   0.0000   0.1830
  17.800   1.0839   0.08423   0.07891   0.0332  0.1389  1.0000  -3.6166   0.0000   0.1840
  18.000   1.0704   0.08848   0.08328   0.0309  0.1360  1.0000  -3.5968   0.0000   0.1851
  18.200   1.0653   0.09163   0.08647   0.0292  0.1334  1.0000  -3.6071   0.0000   0.1860
  18.400   1.0717   0.09324   0.08805   0.0283  0.1311  1.0000  -3.6588   0.0000   0.1866
  18.600   1.0544   0.09812   0.09306   0.0256  0.1282  1.0000  -3.6214   0.0000   0.1881
  18.800   1.0334   0.10358   0.09866   0.0225  0.1250  1.0000  -3.5677   0.0000   0.1900
  19.000   1.0288   0.10681   0.10193   0.0205  0.1223  1.0000  -3.5748   0.0000   0.1913
  19.200   1.0400   0.10780   0.10287   0.0198  0.1202  1.0000  -3.6432   0.0000   0.1917
  19.400   1.0210   0.11310   0.10830   0.0166  0.1172  1.0000  -3.5908   0.0000   0.1939
  19.600   0.9952   0.11950   0.11484   0.0127  0.1136  1.0000  -3.5064   0.0000   0.1969
  19.800   0.9970   0.12191   0.11726   0.0110  0.1112  1.0000  -3.5360   0.0000   0.1981
  20.000   1.0139   0.12204   0.11735   0.0106  0.1094  1.0000  -3.6310   0.0000   0.1981
  20.200   0.9819   0.12956   0.12502   0.0059  0.1057  1.0000  -3.5105   0.0000   0.2021
  20.400   0.9629   0.13520   0.13075   0.0021  0.1021  1.0000  -3.4421   0.0000   0.2053
  20.600   0.9751   0.13604   0.13158   0.0012  0.1003  1.0000  -3.5160   0.0000   0.2058
  20.800   0.9961   0.13550   0.13099   0.0012  0.0990  1.0000  -3.6313   0.0000   0.2053
  21.000   0.9376   0.14756   0.14327  -0.0067  0.0931  1.0000  -3.3628   0.0000   0.2132
  21.200   0.9461   0.14900   0.14471  -0.0080  0.0912  1.0000  -3.4174   0.0000   0.2140
  21.400   0.9636   0.14894   0.14464  -0.0085  0.0901  1.0000  -3.5184   0.0000   0.2138
  21.600   0.9861   0.14807   0.14371  -0.0084  0.0890  1.0000  -3.6452   0.0000   0.2129
  21.800   0.9258   0.16100   0.15684  -0.0171  0.0824  1.0000  -3.3342   0.0000   0.2226
  22.000   0.9404   0.16137   0.15722  -0.0179  0.0813  1.0000  -3.4220   0.0000   0.2225
  22.200   0.9583   0.16114   0.15697  -0.0183  0.0805  1.0000  -3.5320   0.0000   0.2220
  22.400   0.9801   0.16025   0.15605  -0.0183  0.0797  1.0000  -3.6655   0.0000   0.2209
  23.000   0.9288   0.17800   0.17401  -0.0316  0.0693  1.0000  -3.3746   0.0000   0.2350
  23.200   0.9689   0.17359   0.16954  -0.0294  0.0706  1.0000  -3.6355   0.0000   0.2305
  23.600   0.9383   0.18514   0.18123  -0.0383  0.0637  1.0000  -3.4358   0.0000   0.2402
  23.800   0.9543   0.18503   0.18111  -0.0390  0.0633  1.0000  -3.5457   0.0000   0.2395
  24.000   0.9717   0.18466   0.18072  -0.0395  0.0628  1.0000  -3.6675   0.0000   0.2385
  24.600   0.9493   0.19800   0.19420  -0.0504  0.0552  1.0000  -3.4914   0.0000   0.2497


