xflr5 v6.47

 Calculated polar for: NACA24018_theta30_Ku4.5_Kl0.5_d0.07_delta1.57

 1 1 Reynolds number fixed          Mach number fixed         

 xtrf =   1.000 (top)        1.000 (bottom)
 Mach =   0.000     Re =     2.600 e 6     Ncrit =   5.000

  alpha     CL        CD       CDp       Cm    Top Xtr Bot Xtr   Cpmin    Chinge    XCp    
 ------- -------- --------- --------- -------- ------- ------- -------- --------- ---------
 -15.000  -1.1184   0.02166   0.01695  -0.0798  0.9779  0.0223  -7.1461   0.0000   0.1559
 -14.800  -1.0967   0.02124   0.01652  -0.0807  0.9773  0.0227  -6.9915   0.0000   0.1539
 -14.600  -1.0845   0.02052   0.01579  -0.0796  0.9742  0.0230  -6.8728   0.0000   0.1544
 -14.400  -1.0662   0.02002   0.01528  -0.0797  0.9730  0.0233  -6.7330   0.0000   0.1533
 -14.200  -1.0455   0.01958   0.01484  -0.0802  0.9723  0.0237  -6.5853   0.0000   0.1516
 -14.000  -1.0238   0.01918   0.01443  -0.0808  0.9717  0.0240  -6.4352   0.0000   0.1496
 -13.800  -1.0013   0.01881   0.01406  -0.0815  0.9714  0.0244  -6.2837   0.0000   0.1473
 -13.600  -0.9977   0.01823   0.01346  -0.0786  0.9683  0.0246  -6.1980   0.0000   0.1504
 -13.400  -0.9806   0.01782   0.01304  -0.0781  0.9671  0.0249  -6.0668   0.0000   0.1498
 -13.200  -0.9609   0.01744   0.01266  -0.0782  0.9663  0.0252  -5.9277   0.0000   0.1483
 -13.000  -0.9401   0.01709   0.01230  -0.0784  0.9657  0.0254  -5.7860   0.0000   0.1465
 -12.800  -0.9188   0.01675   0.01196  -0.0787  0.9653  0.0256  -5.6439   0.0000   0.1444
 -12.600  -0.9168   0.01626   0.01145  -0.0752  0.9617  0.0259  -5.5672   0.0000   0.1485
 -12.400  -0.9024   0.01586   0.01104  -0.0741  0.9597  0.0263  -5.4499   0.0000   0.1486
 -12.200  -0.9228   0.01546   0.01062  -0.0662  0.9453  0.0264  -5.4462   0.0000   0.1597
 -12.000  -0.9140   0.01513   0.01028  -0.0640  0.9378  0.0269  -5.3473   0.0000   0.1617
 -11.800  -0.8991   0.01477   0.00992  -0.0629  0.9345  0.0273  -5.2293   0.0000   0.1621
 -11.600  -0.8819   0.01441   0.00955  -0.0622  0.9314  0.0278  -5.1051   0.0000   0.1617
 -11.400  -0.8609   0.01406   0.00920  -0.0621  0.9271  0.0283  -4.9739   0.0000   0.1602
 -11.200  -0.8360   0.01371   0.00884  -0.0628  0.9237  0.0287  -4.8337   0.0000   0.1573
 -11.000  -0.8078   0.01333   0.00846  -0.0642  0.9200  0.0291  -4.6853   0.0000   0.1531
 -10.800  -0.7757   0.01293   0.00805  -0.0663  0.9145  0.0294  -4.5290   0.0000   0.1471
 -10.600  -0.7424   0.01250   0.00760  -0.0687  0.9071  0.0303  -4.3766   0.0000   0.1400
 -10.400  -0.7013   0.01203   0.00711  -0.0727  0.8978  0.0313  -4.2049   0.0000   0.1287
 -10.200  -0.6646   0.01165   0.00666  -0.0758  0.8758  0.0321  -4.0475   0.0000   0.1181
 -10.000  -0.6453   0.01147   0.00636  -0.0754  0.8434  0.0327  -3.9375   0.0000   0.1155
  -9.800  -0.6313   0.01135   0.00613  -0.0738  0.8117  0.0331  -3.8428   0.0000   0.1156
  -9.600  -0.6165   0.01126   0.00593  -0.0724  0.7821  0.0335  -3.7466   0.0000   0.1152
  -9.400  -0.6000   0.01115   0.00573  -0.0713  0.7556  0.0340  -3.6472   0.0000   0.1139
  -9.200  -0.5822   0.01101   0.00553  -0.0706  0.7345  0.0350  -3.5453   0.0000   0.1116
  -9.000  -0.5632   0.01087   0.00535  -0.0700  0.7167  0.0359  -3.4413   0.0000   0.1086
  -8.800  -0.5433   0.01075   0.00517  -0.0696  0.6981  0.0369  -3.3362   0.0000   0.1047
  -8.600  -0.5226   0.01065   0.00501  -0.0694  0.6791  0.0377  -3.2301   0.0000   0.1001
  -8.400  -0.5013   0.01055   0.00485  -0.0692  0.6619  0.0383  -3.1241   0.0000   0.0947
  -8.200  -0.4801   0.01044   0.00470  -0.0691  0.6461  0.0392  -3.0195   0.0000   0.0888
  -8.000  -0.4590   0.01032   0.00455  -0.0689  0.6329  0.0404  -2.9164   0.0000   0.0825
  -7.800  -0.4379   0.01022   0.00442  -0.0687  0.6197  0.0415  -2.8144   0.0000   0.0756
  -7.600  -0.4166   0.01013   0.00429  -0.0685  0.6056  0.0426  -2.7131   0.0000   0.0678
  -7.400  -0.3951   0.01006   0.00417  -0.0684  0.5906  0.0435  -2.6126   0.0000   0.0590
  -7.200  -0.3735   0.00998   0.00405  -0.0683  0.5758  0.0448  -2.5179   0.0000   0.0491
  -7.000  -0.3518   0.00990   0.00394  -0.0682  0.5619  0.0464  -2.4243   0.0000   0.0378
  -6.800  -0.3300   0.00982   0.00383  -0.0681  0.5485  0.0477  -2.3313   0.0000   0.0249
  -6.600  -0.3080   0.00976   0.00374  -0.0680  0.5344  0.0489  -2.2392   0.0000   0.0099
  -6.400  -0.2859   0.00972   0.00365  -0.0680  0.5203  0.0501  -2.1486   0.0000  -0.0075
  -6.200  -0.2638   0.00964   0.00355  -0.0680  0.5077  0.0524  -2.0631   0.0000  -0.0280
  -6.000  -0.2416   0.00958   0.00347  -0.0679  0.4960  0.0542  -1.9783   0.0000  -0.0525
  -5.800  -0.2192   0.00954   0.00339  -0.0679  0.4833  0.0557  -1.8945   0.0000  -0.0821
  -5.600  -0.1969   0.00951   0.00332  -0.0679  0.4700  0.0573  -1.8118   0.0000  -0.1187
  -5.400  -0.1744   0.00946   0.00325  -0.0680  0.4576  0.0598  -1.7301   0.0000  -0.1649
  -5.200  -0.1518   0.00942   0.00318  -0.0680  0.4471  0.0621  -1.6528   0.0000  -0.2253
  -5.000  -0.1292   0.00938   0.00312  -0.0680  0.4374  0.0642  -1.5770   0.0000  -0.3071
  -4.800  -0.1065   0.00934   0.00306  -0.0681  0.4267  0.0678  -1.5021   0.0000  -0.4245
  -4.600  -0.0838   0.00932   0.00302  -0.0682  0.4150  0.0706  -1.4282   0.0000  -0.6054
  -4.400  -0.0610   0.00930   0.00297  -0.0682  0.4042  0.0734  -1.3553   0.0000  -0.9225
  -4.200  -0.0380   0.00926   0.00292  -0.0684  0.3943  0.0782  -1.2832   0.0000  -1.6277
  -4.000  -0.0152   0.00925   0.00289  -0.0684  0.3841  0.0817  -1.2133   0.0000  -4.4442
  -3.800   0.0080   0.00922   0.00285  -0.0686  0.3745  0.0877  -1.1468   0.0000   9.1966
  -3.600   0.0310   0.00920   0.00282  -0.0687  0.3657  0.0922  -1.0813   0.0000   2.5439
  -3.400   0.0542   0.00918   0.00279  -0.0689  0.3570  0.0985  -1.0166   0.0000   1.5607
  -3.200   0.0774   0.00916   0.00277  -0.0690  0.3511  0.1032  -0.9551   0.0000   1.1663
  -3.000   0.1009   0.00914   0.00275  -0.0692  0.3443  0.1114  -0.8964   0.0000   0.9532
  -2.800   0.1245   0.00910   0.00273  -0.0695  0.3389  0.1207  -0.8406   0.0000   0.8198
  -2.600   0.1482   0.00908   0.00272  -0.0697  0.3327  0.1305  -0.7942   0.0000   0.7291
  -2.400   0.1719   0.00906   0.00271  -0.0700  0.3261  0.1419  -0.8186   0.0000   0.6633
  -2.000   0.2211   0.00896   0.00270  -0.0710  0.3144  0.1809  -0.8701   0.0000   0.5737
  -1.800   0.2475   0.00885   0.00269  -0.0719  0.3105  0.2148  -0.8979   0.0000   0.5420
  -1.600   0.2766   0.00869   0.00267  -0.0734  0.3058  0.2695  -0.9276   0.0000   0.5161
  -1.400   0.3064   0.00856   0.00268  -0.0752  0.2998  0.3252  -0.9579   0.0000   0.4950
  -1.200   0.3365   0.00844   0.00270  -0.0769  0.2959  0.3732  -0.9888   0.0000   0.4775
  -1.000   0.3657   0.00837   0.00273  -0.0784  0.2917  0.4129  -1.0204   0.0000   0.4627
  -0.800   0.3931   0.00837   0.00278  -0.0795  0.2865  0.4389  -1.0521   0.0000   0.4499
  -0.600   0.4206   0.00836   0.00282  -0.0805  0.2829  0.4622  -1.0846   0.0000   0.4388
  -0.400   0.4476   0.00836   0.00287  -0.0815  0.2799  0.4833  -1.1170   0.0000   0.4289
  -0.200   0.4742   0.00838   0.00293  -0.0823  0.2765  0.5012  -1.1492   0.0000   0.4201
   0.000   0.5021   0.00841   0.00299  -0.0835  0.2726  0.5241  -1.1827   0.0000   0.4124
   0.200   0.5295   0.00843   0.00305  -0.0845  0.2697  0.5445  -1.2159   0.0000   0.4054
   0.400   0.5572   0.00845   0.00312  -0.0856  0.2672  0.5629  -1.2497   0.0000   0.3991
   0.600   0.5832   0.00850   0.00319  -0.0863  0.2637  0.5761  -1.2824   0.0000   0.3932
   0.800   0.6084   0.00858   0.00326  -0.0868  0.2596  0.5858  -1.3145   0.0000   0.3877
   1.000   0.6331   0.00865   0.00333  -0.0873  0.2563  0.5928  -1.3475   0.0000   0.3825
   1.200   0.6578   0.00870   0.00339  -0.0877  0.2544  0.6001  -1.3812   0.0000   0.3777
   1.400   0.6822   0.00877   0.00346  -0.0881  0.2517  0.6064  -1.4149   0.0000   0.3732
   1.600   0.7068   0.00886   0.00354  -0.0885  0.2482  0.6141  -1.4490   0.0000   0.3690
   1.800   0.7310   0.00895   0.00363  -0.0888  0.2439  0.6211  -1.4828   0.0000   0.3651
   2.000   0.7558   0.00902   0.00371  -0.0893  0.2417  0.6288  -1.5179   0.0000   0.3614
   2.200   0.7800   0.00910   0.00379  -0.0896  0.2394  0.6353  -1.5539   0.0000   0.3580
   2.400   0.8047   0.00919   0.00388  -0.0901  0.2361  0.6429  -1.5905   0.0000   0.3547
   2.600   0.8285   0.00930   0.00398  -0.0904  0.2323  0.6497  -1.6264   0.0000   0.3516
   2.800   0.8533   0.00940   0.00408  -0.0908  0.2292  0.6573  -1.6640   0.0000   0.3487
   3.000   0.8774   0.00948   0.00418  -0.0912  0.2273  0.6642  -1.7026   0.0000   0.3459
   3.200   0.9023   0.00958   0.00428  -0.0917  0.2245  0.6720  -1.7421   0.0000   0.3434
   3.400   0.9260   0.00970   0.00439  -0.0919  0.2210  0.6792  -1.7820   0.0000   0.3408
   3.600   0.9506   0.00983   0.00452  -0.0924  0.2173  0.6872  -1.8235   0.0000   0.3385
   3.800   0.9745   0.00993   0.00462  -0.0927  0.2155  0.6939  -1.8648   0.0000   0.3361
   4.000   0.9993   0.01003   0.00474  -0.0931  0.2137  0.7010  -1.9071   0.0000   0.3340
   4.200   1.0224   0.01014   0.00485  -0.0933  0.2115  0.7073  -1.9480   0.0000   0.3318
   4.400   1.0470   0.01027   0.00499  -0.0937  0.2084  0.7142  -1.9907   0.0000   0.3298
   4.600   1.0696   0.01042   0.00513  -0.0938  0.2046  0.7208  -2.0315   0.0000   0.3277
   4.800   1.0941   0.01055   0.00527  -0.0942  0.2023  0.7274  -2.0745   0.0000   0.3259
   5.000   1.1176   0.01067   0.00540  -0.0945  0.2002  0.7341  -2.1179   0.0000   0.3241
   5.200   1.1410   0.01081   0.00555  -0.0947  0.1974  0.7401  -2.1625   0.0000   0.3223
   5.400   1.1642   0.01099   0.00571  -0.0949  0.1939  0.7473  -2.2070   0.0000   0.3205
   5.600   1.1867   0.01115   0.00587  -0.0950  0.1904  0.7534  -2.2510   0.0000   0.3187
   5.800   1.2106   0.01129   0.00603  -0.0953  0.1884  0.7599  -2.2980   0.0000   0.3172
   6.000   1.2325   0.01144   0.00618  -0.0952  0.1857  0.7654  -2.3442   0.0000   0.3154
   6.200   1.2549   0.01162   0.00636  -0.0953  0.1828  0.7704  -2.3937   0.0000   0.3138
   6.400   1.2766   0.01182   0.00655  -0.0952  0.1793  0.7761  -2.4425   0.0000   0.3122
   6.600   1.2980   0.01198   0.00672  -0.0951  0.1770  0.7812  -2.4912   0.0000   0.3106
   6.800   1.3205   0.01216   0.00691  -0.0952  0.1743  0.7866  -2.5417   0.0000   0.3091
   7.000   1.3410   0.01237   0.00711  -0.0949  0.1710  0.7917  -2.5908   0.0000   0.3075
   7.400   1.3814   0.01280   0.00754  -0.0942  0.1650  0.8011  -2.6967   0.0000   0.3043
   7.600   1.4020   0.01298   0.00774  -0.0939  0.1633  0.8060  -2.7511   0.0000   0.3028
   7.800   1.4214   0.01320   0.00795  -0.0934  0.1607  0.8101  -2.8042   0.0000   0.3012
   8.000   1.4400   0.01347   0.00821  -0.0928  0.1567  0.8138  -2.8564   0.0000   0.2997
   8.200   1.4588   0.01372   0.00847  -0.0922  0.1532  0.8179  -2.9093   0.0000   0.2981
   8.400   1.4783   0.01393   0.00869  -0.0918  0.1511  0.8221  -2.9684   0.0000   0.2967
   8.600   1.4971   0.01417   0.00893  -0.0912  0.1486  0.8257  -3.0274   0.0000   0.2952
   8.800   1.5143   0.01448   0.00923  -0.0904  0.1446  0.8296  -3.0841   0.0000   0.2936
   9.000   1.5314   0.01476   0.00951  -0.0896  0.1410  0.8332  -3.1434   0.0000   0.2921
   9.200   1.5485   0.01504   0.00979  -0.0887  0.1382  0.8365  -3.2064   0.0000   0.2906
   9.400   1.5648   0.01536   0.01011  -0.0878  0.1351  0.8392  -3.2684   0.0000   0.2890
   9.600   1.5796   0.01573   0.01046  -0.0866  0.1310  0.8419  -3.3280   0.0000   0.2874
   9.800   1.5958   0.01601   0.01076  -0.0856  0.1287  0.8450  -3.3906   0.0000   0.2859
  10.000   1.6114   0.01634   0.01109  -0.0846  0.1256  0.8482  -3.4525   0.0000   0.2844
  10.200   1.6253   0.01677   0.01151  -0.0833  0.1216  0.8511  -3.5199   0.0000   0.2828
  10.400   1.6403   0.01716   0.01189  -0.0822  0.1185  0.8535  -3.5900   0.0000   0.2814
  10.600   1.6548   0.01752   0.01226  -0.0810  0.1160  0.8559  -3.6598   0.0000   0.2799
  10.800   1.6671   0.01792   0.01268  -0.0795  0.1130  0.8586  -3.7254   0.0000   0.2782
  11.000   1.6779   0.01843   0.01317  -0.0778  0.1091  0.8612  -3.7938   0.0000   0.2765
  11.200   1.6914   0.01884   0.01360  -0.0766  0.1067  0.8636  -3.8685   0.0000   0.2751
  11.400   1.7039   0.01936   0.01411  -0.0752  0.1032  0.8657  -3.9415   0.0000   0.2736
  11.600   1.7148   0.01998   0.01472  -0.0737  0.0993  0.8674  -4.0130   0.0000   0.2721
  11.800   1.7281   0.02048   0.01523  -0.0726  0.0971  0.8690  -4.0917   0.0000   0.2707
  12.000   1.7370   0.02101   0.01577  -0.0707  0.0947  0.8712  -4.1605   0.0000   0.2690
  12.200   1.7438   0.02168   0.01645  -0.0687  0.0915  0.8734  -4.2246   0.0000   0.2673
  12.400   1.7517   0.02236   0.01714  -0.0668  0.0884  0.8755  -4.2916   0.0000   0.2657
  12.600   1.7620   0.02299   0.01778  -0.0654  0.0865  0.8775  -4.3647   0.0000   0.2643
  12.800   1.7718   0.02372   0.01853  -0.0641  0.0840  0.8793  -4.4385   0.0000   0.2629
  13.000   1.7800   0.02462   0.01942  -0.0627  0.0809  0.8808  -4.5122   0.0000   0.2615
  13.200   1.7902   0.02545   0.02026  -0.0616  0.0785  0.8820  -4.5916   0.0000   0.2603
  13.400   1.7974   0.02631   0.02114  -0.0600  0.0761  0.8835  -4.6654   0.0000   0.2589
  13.600   1.7989   0.02731   0.02216  -0.0577  0.0734  0.8852  -4.7248   0.0000   0.2572
  13.800   1.8014   0.02837   0.02323  -0.0557  0.0707  0.8868  -4.7868   0.0000   0.2556
  14.000   1.8071   0.02931   0.02420  -0.0542  0.0692  0.8882  -4.8581   0.0000   0.2542
  14.200   1.8121   0.03039   0.02531  -0.0528  0.0674  0.8895  -4.9277   0.0000   0.2529
  14.400   1.8159   0.03169   0.02662  -0.0514  0.0652  0.8908  -4.9935   0.0000   0.2517
  14.600   1.8195   0.03308   0.02803  -0.0503  0.0628  0.8920  -5.0587   0.0000   0.2505
  14.800   1.8259   0.03433   0.02931  -0.0494  0.0614  0.8932  -5.1324   0.0000   0.2495
  15.000   1.8306   0.03578   0.03079  -0.0486  0.0595  0.8942  -5.2011   0.0000   0.2485
  15.200   1.8327   0.03753   0.03256  -0.0478  0.0574  0.8951  -5.2618   0.0000   0.2475
  15.400   1.8352   0.03934   0.03438  -0.0472  0.0554  0.8958  -5.3234   0.0000   0.2467
  15.600   1.8374   0.04092   0.03600  -0.0463  0.0543  0.8968  -5.3849   0.0000   0.2457
  15.800   1.8355   0.04260   0.03773  -0.0450  0.0532  0.8979  -5.4341   0.0000   0.2445
  16.000   1.8326   0.04448   0.03965  -0.0439  0.0520  0.8988  -5.4799   0.0000   0.2434
  16.200   1.8284   0.04660   0.04182  -0.0429  0.0507  0.8997  -5.5218   0.0000   0.2425
  16.400   1.8234   0.04893   0.04420  -0.0422  0.0493  0.9005  -5.5635   0.0000   0.2416
  16.600   1.8212   0.05115   0.04646  -0.0418  0.0483  0.9012  -5.6139   0.0000   0.2409
  16.800   1.8189   0.05348   0.04884  -0.0416  0.0474  0.9019  -5.6637   0.0000   0.2403
  17.000   1.8148   0.05608   0.05150  -0.0415  0.0463  0.9026  -5.7067   0.0000   0.2397
  17.200   1.8082   0.05904   0.05451  -0.0416  0.0450  0.9031  -5.7404   0.0000   0.2393
  17.400   1.7985   0.06244   0.05796  -0.0420  0.0437  0.9036  -5.7623   0.0000   0.2391
  17.600   1.7902   0.06577   0.06135  -0.0425  0.0426  0.9041  -5.7880   0.0000   0.2389
  17.800   1.7834   0.06900   0.06464  -0.0430  0.0418  0.9045  -5.8185   0.0000   0.2387
  18.000   1.7744   0.07257   0.06828  -0.0438  0.0410  0.9050  -5.8402   0.0000   0.2387
  18.200   1.7639   0.07636   0.07214  -0.0448  0.0402  0.9053  -5.8555   0.0000   0.2388
  18.400   1.7520   0.08039   0.07624  -0.0460  0.0394  0.9056  -5.8652   0.0000   0.2390
  18.600   1.7375   0.08486   0.08078  -0.0474  0.0386  0.9058  -5.8647   0.0000   0.2395
  18.800   1.7230   0.08938   0.08537  -0.0489  0.0378  0.9060  -5.8629   0.0000   0.2400
  19.000   1.7102   0.09370   0.08977  -0.0505  0.0372  0.9062  -5.8665   0.0000   0.2405
  19.200   1.6990   0.09784   0.09399  -0.0521  0.0368  0.9064  -5.8752   0.0000   0.2411
  19.400   1.6872   0.10211   0.09833  -0.0539  0.0363  0.9067  -5.8804   0.0000   0.2417
  19.600   1.6750   0.10650   0.10279  -0.0559  0.0358  0.9069  -5.8817   0.0000   0.2425
  19.800   1.6624   0.11095   0.10732  -0.0580  0.0352  0.9071  -5.8801   0.0000   0.2434
  20.000   1.6494   0.11548   0.11191  -0.0602  0.0346  0.9073  -5.8746   0.0000   0.2444
  20.200   1.6361   0.12010   0.11660  -0.0627  0.0339  0.9075  -5.8657   0.0000   0.2455
  20.400   1.6227   0.12480   0.12135  -0.0653  0.0332  0.9077  -5.8539   0.0000   0.2468
  20.600   1.6105   0.12936   0.12597  -0.0679  0.0325  0.9079  -5.8456   0.0000   0.2481
  20.800   1.6025   0.13333   0.13000  -0.0704  0.0320  0.9081  -5.8553   0.0000   0.2492
  21.000   1.5968   0.13695   0.13368  -0.0727  0.0314  0.9084  -5.8746   0.0000   0.2502
  21.200   1.5879   0.14108   0.13786  -0.0754  0.0309  0.9086  -5.8769   0.0000   0.2515
  21.400   1.5822   0.14472   0.14154  -0.0779  0.0302  0.9088  -5.8939   0.0000   0.2526
  21.600   1.5738   0.14883   0.14570  -0.0808  0.0295  0.9089  -5.8952   0.0000   0.2541
  21.800   1.5653   0.15273   0.14965  -0.0835  0.0289  0.9092  -5.8956   0.0000   0.2554
  22.000   1.5578   0.15608   0.15304  -0.0855  0.0282  0.9097  -5.9030   0.0000   0.2564
  22.200   1.5518   0.15915   0.15616  -0.0874  0.0278  0.9101  -5.9175   0.0000   0.2572
  22.400   1.5461   0.16219   0.15924  -0.0893  0.0274  0.9106  -5.9322   0.0000   0.2580
  22.600   1.5429   0.16482   0.16190  -0.0910  0.0269  0.9110  -5.9598   0.0000   0.2585
  22.800   1.5353   0.16829   0.16543  -0.0935  0.0265  0.9113  -5.9608   0.0000   0.2598
  23.000   1.5322   0.17107   0.16823  -0.0954  0.0259  0.9117  -5.9873   0.0000   0.2605
  23.200   1.5258   0.17448   0.17169  -0.0980  0.0254  0.9120  -5.9931   0.0000   0.2618
  23.400   1.5215   0.17753   0.17477  -0.1004  0.0249  0.9123  -6.0105   0.0000   0.2629
  23.600   1.5189   0.18029   0.17756  -0.1026  0.0243  0.9126  -6.0368   0.0000   0.2638
  23.800   1.5138   0.18353   0.18084  -0.1052  0.0240  0.9129  -6.0466   0.0000   0.2650
  24.000   1.5131   0.18598   0.18333  -0.1072  0.0237  0.9132  -6.0826   0.0000   0.2657
  24.200   1.5127   0.18836   0.18574  -0.1091  0.0233  0.9135  -6.1206   0.0000   0.2663
  24.400   1.5073   0.19165   0.18906  -0.1119  0.0229  0.9139  -6.1252   0.0000   0.2677
  24.600   1.5059   0.19418   0.19162  -0.1140  0.0224  0.9143  -6.1557   0.0000   0.2685
  24.800   1.5047   0.19670   0.19417  -0.1162  0.0219  0.9147  -6.1862   0.0000   0.2693
  25.000   1.4987   0.20018   0.19769  -0.1193  0.0215  0.9151  -6.1819   0.0000   0.2710


