xflr5 v6.47

 Calculated polar for: NACA24018_theta30_Ku4.5_Kl0.5_d0.10_delta2.45

 1 1 Reynolds number fixed          Mach number fixed         

 xtrf =   1.000 (top)        1.000 (bottom)
 Mach =   0.000     Re =     0.200 e 6     Ncrit =   5.000

  alpha     CL        CD       CDp       Cm    Top Xtr Bot Xtr   Cpmin    Chinge    XCp    
 ------- -------- --------- --------- -------- ------- ------- -------- --------- ---------
 -15.000  -0.8983   0.05237   0.04602  -0.0714  1.0000  0.0420  -5.7200   0.0000   0.1458
 -14.800  -0.8982   0.05082   0.04443  -0.0708  1.0000  0.0423  -5.6723   0.0000   0.1469
 -14.600  -0.8984   0.04931   0.04287  -0.0701  1.0000  0.0426  -5.6252   0.0000   0.1482
 -14.400  -0.8986   0.04786   0.04137  -0.0692  1.0000  0.0429  -5.5785   0.0000   0.1497
 -14.200  -0.8990   0.04647   0.03991  -0.0682  1.0000  0.0433  -5.5318   0.0000   0.1514
 -14.000  -0.8994   0.04514   0.03852  -0.0670  1.0000  0.0437  -5.4852   0.0000   0.1532
 -13.800  -0.8999   0.04387   0.03716  -0.0656  1.0000  0.0442  -5.4389   0.0000   0.1551
 -13.600  -0.9004   0.04266   0.03586  -0.0642  1.0000  0.0446  -5.3929   0.0000   0.1573
 -13.400  -0.9010   0.04149   0.03460  -0.0625  1.0000  0.0451  -5.3477   0.0000   0.1596
 -13.200  -0.9017   0.04039   0.03337  -0.0607  1.0000  0.0457  -5.3033   0.0000   0.1620
 -12.800  -0.8911   0.03883   0.03173  -0.0586  0.9990  0.0466  -5.1633   0.0000   0.1643
 -12.400  -0.8700   0.03790   0.03077  -0.0578  0.9962  0.0477  -4.9816   0.0000   0.1641
 -12.200  -0.8550   0.03764   0.03046  -0.0581  0.9942  0.0483  -4.8797   0.0000   0.1628
 -11.800  -0.8226   0.03652   0.02920  -0.0587  0.9870  0.0499  -4.6757   0.0000   0.1597
 -11.600  -0.8018   0.03593   0.02849  -0.0596  0.9824  0.0509  -4.5640   0.0000   0.1568
 -11.400  -0.7842   0.03527   0.02777  -0.0599  0.9778  0.0518  -4.4622   0.0000   0.1549
 -11.200  -0.7692   0.03465   0.02716  -0.0598  0.9733  0.0525  -4.3634   0.0000   0.1538
 -11.000  -0.7551   0.03404   0.02654  -0.0594  0.9690  0.0534  -4.2690   0.0000   0.1531
 -10.800  -0.7397   0.03350   0.02597  -0.0592  0.9654  0.0543  -4.1728   0.0000   0.1520
 -10.600  -0.7261   0.03285   0.02527  -0.0585  0.9610  0.0554  -4.0842   0.0000   0.1516
 -10.400  -0.7128   0.03214   0.02450  -0.0577  0.9562  0.0564  -3.9982   0.0000   0.1515
 -10.200  -0.6954   0.03149   0.02378  -0.0575  0.9526  0.0576  -3.9026   0.0000   0.1498
 -10.000  -0.6798   0.03078   0.02309  -0.0571  0.9482  0.0585  -3.8063   0.0000   0.1487
  -9.800  -0.6659   0.03005   0.02237  -0.0564  0.9428  0.0595  -3.7155   0.0000   0.1483
  -9.600  -0.6489   0.02940   0.02171  -0.0561  0.9384  0.0608  -3.6182   0.0000   0.1467
  -9.400  -0.6321   0.02874   0.02100  -0.0556  0.9335  0.0623  -3.5238   0.0000   0.1452
  -9.200  -0.6181   0.02804   0.02025  -0.0546  0.9269  0.0636  -3.4397   0.0000   0.1451
  -9.000  -0.6032   0.02734   0.01956  -0.0539  0.9207  0.0648  -3.3546   0.0000   0.1443
  -8.800  -0.5833   0.02671   0.01895  -0.0540  0.9163  0.0663  -3.2564   0.0000   0.1412
  -8.600  -0.5663   0.02612   0.01835  -0.0534  0.9101  0.0679  -3.1671   0.0000   0.1394
  -8.400  -0.5434   0.02556   0.01775  -0.0539  0.9068  0.0700  -3.0659   0.0000   0.1346
  -8.200  -0.5251   0.02498   0.01716  -0.0535  0.9008  0.0717  -2.9768   0.0000   0.1319
  -8.000  -0.5028   0.02438   0.01658  -0.0539  0.8966  0.0736  -2.8765   0.0000   0.1266
  -7.800  -0.4814   0.02384   0.01604  -0.0540  0.8916  0.0759  -2.7803   0.0000   0.1216
  -7.600  -0.4603   0.02334   0.01551  -0.0540  0.8859  0.0784  -2.6908   0.0000   0.1164
  -7.400  -0.4355   0.02272   0.01491  -0.0547  0.8826  0.0809  -2.5938   0.0000   0.1078
  -7.200  -0.4173   0.02225   0.01446  -0.0542  0.8746  0.0834  -2.5111   0.0000   0.1035
  -7.000  -0.3921   0.02172   0.01390  -0.0549  0.8703  0.0867  -2.4156   0.0000   0.0933
  -6.800  -0.3715   0.02123   0.01343  -0.0548  0.8622  0.0897  -2.3303   0.0000   0.0856
  -6.600  -0.3454   0.02067   0.01289  -0.0556  0.8566  0.0936  -2.2338   0.0000   0.0717
  -6.400  -0.3220   0.02025   0.01243  -0.0558  0.8483  0.0977  -2.1450   0.0000   0.0588
  -6.200  -0.2941   0.01965   0.01189  -0.0570  0.8420  0.1025  -2.0473   0.0000   0.0377
  -6.000  -0.2682   0.01922   0.01143  -0.0577  0.8338  0.1080  -1.9554   0.0000   0.0156
  -5.800  -0.2380   0.01865   0.01089  -0.0593  0.8267  0.1146  -1.8583   0.0000  -0.0196
  -5.600  -0.2091   0.01818   0.01043  -0.0606  0.8179  0.1223  -1.7676   0.0000  -0.0619
  -5.400  -0.1753   0.01763   0.00989  -0.0628  0.8101  0.1325  -1.6717   0.0000  -0.1330
  -5.200  -0.1433   0.01713   0.00942  -0.0647  0.7995  0.1448  -1.5828   0.0000  -0.2303
  -5.000  -0.1059   0.01653   0.00887  -0.0677  0.7895  0.1629  -1.4864   0.0000  -0.4257
  -4.800  -0.0669   0.01590   0.00832  -0.0712  0.7774  0.1920  -1.3918   0.0000  -0.8681
  -4.600  -0.0262   0.01510   0.00779  -0.0754  0.7628  0.2569  -1.2987   0.0000  -2.7564
  -4.400   0.0237   0.01419   0.00737  -0.0816  0.7466  0.3882  -1.1930   0.0000   3.8188
  -4.200   0.0654   0.01384   0.00715  -0.0855  0.7286  0.4491  -1.1012   0.0000   1.6010
  -4.000   0.1010   0.01369   0.00699  -0.0881  0.7096  0.4865  -1.0229   0.0000   1.1477
  -3.800   0.1323   0.01362   0.00691  -0.0898  0.6901  0.5138  -0.9516   0.0000   0.9461
  -3.600   0.1612   0.01362   0.00685  -0.0910  0.6703  0.5362  -0.8845   0.0000   0.8272
  -3.400   0.1875   0.01365   0.00685  -0.0916  0.6512  0.5574  -0.8226   0.0000   0.7485
  -3.200   0.2124   0.01372   0.00687  -0.0920  0.6327  0.5776  -0.8053   0.0000   0.6906
  -3.000   0.2359   0.01382   0.00691  -0.0921  0.6146  0.5950  -0.8304   0.0000   0.6462
  -2.600   0.2789   0.01407   0.00705  -0.0914  0.5800  0.6257  -0.8784   0.0000   0.5812
  -2.400   0.2989   0.01422   0.00715  -0.0908  0.5638  0.6406  -0.9016   0.0000   0.5562
  -2.200   0.3182   0.01438   0.00727  -0.0900  0.5482  0.6551  -0.9244   0.0000   0.5345
  -2.000   0.3382   0.01454   0.00737  -0.0894  0.5329  0.6679  -0.9476   0.0000   0.5152
  -1.800   0.3549   0.01470   0.00748  -0.0882  0.5186  0.6765  -0.9698   0.0000   0.4985
  -1.600   0.3752   0.01484   0.00754  -0.0877  0.5045  0.6838  -0.9945   0.0000   0.4832
  -1.400   0.3903   0.01500   0.00765  -0.0861  0.4923  0.6899  -1.0158   0.0000   0.4696
  -1.200   0.4122   0.01516   0.00773  -0.0860  0.4797  0.6975  -1.0423   0.0000   0.4571
  -1.000   0.4257   0.01532   0.00785  -0.0841  0.4683  0.7029  -1.0636   0.0000   0.4455
  -0.800   0.4429   0.01549   0.00797  -0.0831  0.4570  0.7095  -1.0877   0.0000   0.4349
  -0.600   0.4622   0.01566   0.00808  -0.0824  0.4462  0.7163  -1.1134   0.0000   0.4253
  -0.400   0.4745   0.01584   0.00822  -0.0803  0.4367  0.7217  -1.1340   0.0000   0.4158
  -0.200   0.4947   0.01602   0.00834  -0.0799  0.4271  0.7286  -1.1606   0.0000   0.4077
   0.000   0.5083   0.01621   0.00849  -0.0781  0.4188  0.7341  -1.1822   0.0000   0.3994
   0.200   0.5223   0.01638   0.00865  -0.0763  0.4105  0.7397  -1.2042   0.0000   0.3916
   0.400   0.5445   0.01660   0.00878  -0.0764  0.4021  0.7468  -1.2338   0.0000   0.3854
   0.600   0.5539   0.01676   0.00896  -0.0736  0.3952  0.7512  -1.2536   0.0000   0.3778
   0.800   0.5673   0.01697   0.00913  -0.0718  0.3886  0.7566  -1.2765   0.0000   0.3711
   1.000   0.5916   0.01716   0.00928  -0.0723  0.3816  0.7634  -1.3081   0.0000   0.3664
   1.200   0.5985   0.01735   0.00947  -0.0691  0.3760  0.7673  -1.3260   0.0000   0.3593
   1.400   0.6106   0.01758   0.00966  -0.0670  0.3706  0.7722  -1.3481   0.0000   0.3534
   1.600   0.6337   0.01778   0.00983  -0.0673  0.3640  0.7786  -1.3793   0.0000   0.3495
   1.800   0.6429   0.01799   0.01003  -0.0646  0.3590  0.7825  -1.4003   0.0000   0.3435
   2.000   0.6525   0.01822   0.01024  -0.0621  0.3547  0.7868  -1.4217   0.0000   0.3379
   2.200   0.6711   0.01842   0.01044  -0.0614  0.3494  0.7921  -1.4507   0.0000   0.3339
   2.400   0.6887   0.01865   0.01065  -0.0605  0.3443  0.7970  -1.4805   0.0000   0.3301
   2.600   0.6952   0.01890   0.01087  -0.0574  0.3405  0.8005  -1.5006   0.0000   0.3245
   2.800   0.7085   0.01911   0.01109  -0.0556  0.3363  0.8047  -1.5266   0.0000   0.3202
   3.000   0.7311   0.01935   0.01132  -0.0559  0.3314  0.8101  -1.5610   0.0000   0.3178
   3.200   0.7417   0.01959   0.01154  -0.0536  0.3278  0.8137  -1.5849   0.0000   0.3134
   3.400   0.7491   0.01984   0.01178  -0.0507  0.3247  0.8170  -1.6060   0.0000   0.3086
   3.600   0.7629   0.02007   0.01203  -0.0491  0.3210  0.8211  -1.6326   0.0000   0.3050
   3.800   0.7866   0.02033   0.01229  -0.0496  0.3164  0.8263  -1.6684   0.0000   0.3035
   4.000   0.7950   0.02058   0.01254  -0.0470  0.3130  0.8294  -1.6916   0.0000   0.2992
   4.200   0.8014   0.02085   0.01279  -0.0440  0.3101  0.8325  -1.7132   0.0000   0.2947
   4.400   0.8142   0.02111   0.01306  -0.0423  0.3069  0.8363  -1.7406   0.0000   0.2915
   4.600   0.8356   0.02138   0.01335  -0.0424  0.3030  0.8407  -1.7775   0.0000   0.2900
   4.800   0.8488   0.02164   0.01362  -0.0408  0.2996  0.8441  -1.8072   0.0000   0.2871
   5.000   0.8544   0.02190   0.01388  -0.0378  0.2968  0.8471  -1.8294   0.0000   0.2829
   5.200   0.8650   0.02220   0.01415  -0.0357  0.2941  0.8508  -1.8566   0.0000   0.2798
   5.400   0.8838   0.02249   0.01448  -0.0354  0.2905  0.8549  -1.8920   0.0000   0.2783
   5.600   0.9011   0.02279   0.01481  -0.0348  0.2870  0.8584  -1.9260   0.0000   0.2765
   5.800   0.9058   0.02303   0.01507  -0.0316  0.2843  0.8614  -1.9472   0.0000   0.2726
   6.000   0.9156   0.02332   0.01536  -0.0296  0.2815  0.8647  -1.9738   0.0000   0.2697
   6.200   0.9313   0.02369   0.01570  -0.0287  0.2787  0.8683  -2.0082   0.0000   0.2680
   6.400   0.9534   0.02405   0.01612  -0.0292  0.2752  0.8718  -2.0510   0.0000   0.2675
   6.600   0.9570   0.02428   0.01640  -0.0259  0.2727  0.8746  -2.0737   0.0000   0.2637
   6.800   0.9658   0.02458   0.01673  -0.0237  0.2701  0.8778  -2.1023   0.0000   0.2609
   7.000   0.9795   0.02495   0.01710  -0.0226  0.2673  0.8812  -2.1367   0.0000   0.2592
   7.200   0.9983   0.02540   0.01752  -0.0226  0.2645  0.8841  -2.1772   0.0000   0.2584
   7.400   1.0067   0.02571   0.01788  -0.0205  0.2618  0.8869  -2.2053   0.0000   0.2558
   7.600   1.0140   0.02601   0.01826  -0.0182  0.2591  0.8899  -2.2322   0.0000   0.2531
   7.800   1.0258   0.02640   0.01868  -0.0169  0.2562  0.8929  -2.2662   0.0000   0.2513
   8.000   1.0416   0.02688   0.01917  -0.0164  0.2533  0.8958  -2.3053   0.0000   0.2503
   8.200   1.0532   0.02732   0.01960  -0.0151  0.2508  0.8984  -2.3394   0.0000   0.2486
   8.400   1.0592   0.02767   0.01999  -0.0128  0.2485  0.9011  -2.3680   0.0000   0.2460
   8.600   1.0698   0.02810   0.02050  -0.0114  0.2457  0.9040  -2.4022   0.0000   0.2443
   8.800   1.0840   0.02861   0.02107  -0.0108  0.2429  0.9065  -2.4428   0.0000   0.2433
   9.000   1.0989   0.02918   0.02167  -0.0104  0.2400  0.9087  -2.4850   0.0000   0.2424
   9.200   1.1023   0.02957   0.02208  -0.0078  0.2379  0.9114  -2.5121   0.0000   0.2398
   9.400   1.1115   0.03008   0.02257  -0.0064  0.2357  0.9139  -2.5470   0.0000   0.2381
   9.600   1.1235   0.03068   0.02326  -0.0056  0.2328  0.9162  -2.5850   0.0000   0.2370
   9.800   1.1377   0.03136   0.02402  -0.0053  0.2297  0.9182  -2.6262   0.0000   0.2364
  10.000   1.1425   0.03187   0.02458  -0.0033  0.2272  0.9205  -2.6578   0.0000   0.2343
  10.200   1.1491   0.03246   0.02520  -0.0017  0.2248  0.9229  -2.6924   0.0000   0.2325
  10.400   1.1590   0.03313   0.02587  -0.0008  0.2226  0.9250  -2.7322   0.0000   0.2314
  10.600   1.1712   0.03390   0.02670  -0.0004  0.2200  0.9268  -2.7751   0.0000   0.2306
  10.800   1.1783   0.03460   0.02749   0.0009  0.2174  0.9288  -2.8117   0.0000   0.2292
  11.000   1.1832   0.03529   0.02826   0.0024  0.2149  0.9309  -2.8466   0.0000   0.2276
  11.200   1.1904   0.03610   0.02911   0.0034  0.2124  0.9329  -2.8863   0.0000   0.2264
  11.400   1.1994   0.03700   0.03002   0.0040  0.2099  0.9346  -2.9305   0.0000   0.2255
  11.600   1.2090   0.03793   0.03097   0.0044  0.2075  0.9362  -2.9755   0.0000   0.2248
  11.800   1.2118   0.03876   0.03192   0.0060  0.2051  0.9381  -3.0080   0.0000   0.2232
  12.000   1.2166   0.03974   0.03298   0.0069  0.2024  0.9399  -3.0456   0.0000   0.2220
  12.200   1.2227   0.04083   0.03413   0.0076  0.1997  0.9415  -3.0858   0.0000   0.2211
  12.400   1.2299   0.04198   0.03530   0.0079  0.1973  0.9429  -3.1284   0.0000   0.2205
  12.600   1.2362   0.04304   0.03636   0.0084  0.1951  0.9443  -3.1705   0.0000   0.2196
  12.800   1.2383   0.04424   0.03769   0.0094  0.1926  0.9458  -3.2039   0.0000   0.2185
  13.000   1.2414   0.04554   0.03909   0.0100  0.1900  0.9472  -3.2400   0.0000   0.2176
  13.200   1.2451   0.04692   0.04055   0.0103  0.1874  0.9486  -3.2801   0.0000   0.2169
  13.400   1.2496   0.04838   0.04204   0.0104  0.1849  0.9499  -3.3222   0.0000   0.2164
  13.600   1.2553   0.04983   0.04349   0.0104  0.1826  0.9509  -3.3672   0.0000   0.2160
  13.800   1.2553   0.05145   0.04523   0.0108  0.1801  0.9520  -3.3998   0.0000   0.2152
  14.000   1.2555   0.05320   0.04709   0.0110  0.1773  0.9530  -3.4325   0.0000   0.2146
  14.200   1.2559   0.05499   0.04896   0.0110  0.1747  0.9541  -3.4658   0.0000   0.2141
  14.400   1.2570   0.05680   0.05081   0.0109  0.1723  0.9552  -3.5007   0.0000   0.2137
  14.600   1.2597   0.05853   0.05254   0.0107  0.1701  0.9562  -3.5401   0.0000   0.2134
  14.800   1.2587   0.06086   0.05501   0.0101  0.1674  0.9571  -3.5685   0.0000   0.2134
  15.000   1.2574   0.06330   0.05757   0.0093  0.1646  0.9577  -3.5961   0.0000   0.2135
  15.200   1.2550   0.06562   0.05996   0.0089  0.1620  0.9584  -3.6225   0.0000   0.2133
  15.400   1.2535   0.06783   0.06220   0.0084  0.1596  0.9591  -3.6523   0.0000   0.2132
  15.600   1.2532   0.06995   0.06434   0.0078  0.1574  0.9598  -3.6851   0.0000   0.2131
  15.800   1.2463   0.07299   0.06753   0.0068  0.1547  0.9604  -3.6961   0.0000   0.2134
  16.000   1.2400   0.07603   0.07069   0.0057  0.1520  0.9611  -3.7094   0.0000   0.2137
  16.200   1.2357   0.07888   0.07361   0.0046  0.1494  0.9618  -3.7288   0.0000   0.2140
  16.400   1.2348   0.08134   0.07607   0.0035  0.1471  0.9625  -3.7592   0.0000   0.2143
  16.600   1.2297   0.08444   0.07926   0.0021  0.1447  0.9630  -3.7740   0.0000   0.2149
  16.800   1.2190   0.08837   0.08333   0.0002  0.1419  0.9633  -3.7682   0.0000   0.2159
  17.000   1.2109   0.09199   0.08704  -0.0017  0.1392  0.9636  -3.7706   0.0000   0.2169
  17.200   1.2088   0.09482   0.08990  -0.0032  0.1367  0.9639  -3.7936   0.0000   0.2176
  17.400   1.2090   0.09737   0.09246  -0.0046  0.1344  0.9642  -3.8254   0.0000   0.2183
  17.600   1.1930   0.10223   0.09748  -0.0074  0.1315  0.9643  -3.7958   0.0000   0.2200
  17.800   1.1813   0.10652   0.10188  -0.0099  0.1286  0.9644  -3.7804   0.0000   0.2216
  18.000   1.1780   0.10933   0.10472  -0.0115  0.1261  0.9649  -3.7982   0.0000   0.2224
  18.200   1.1844   0.11065   0.10598  -0.0121  0.1240  0.9657  -3.8537   0.0000   0.2224
  18.400   1.1617   0.11656   0.11208  -0.0157  0.1209  0.9658  -3.7901   0.0000   0.2251
  18.600   1.1469   0.12130   0.11692  -0.0187  0.1179  0.9662  -3.7561   0.0000   0.2273
  18.800   1.1477   0.12368   0.11932  -0.0203  0.1155  0.9668  -3.7852   0.0000   0.2281
  19.000   1.1566   0.12484   0.12044  -0.0211  0.1134  0.9674  -3.8480   0.0000   0.2281
  19.200   1.1291   0.13177   0.12756  -0.0258  0.1099  0.9674  -3.7521   0.0000   0.2322
  19.400   1.1201   0.13588   0.13173  -0.0288  0.1070  0.9676  -3.7332   0.0000   0.2344
  19.600   1.1302   0.13698   0.13281  -0.0298  0.1049  0.9680  -3.8013   0.0000   0.2345
  19.800   1.1286   0.13995   0.13581  -0.0321  0.1025  0.9683  -3.8155   0.0000   0.2360
  20.000   1.1022   0.14699   0.14301  -0.0373  0.0987  0.9682  -3.7090   0.0000   0.2408
  20.200   1.1065   0.14908   0.14511  -0.0390  0.0965  0.9686  -3.7478   0.0000   0.2417
  20.400   1.1232   0.14913   0.14511  -0.0394  0.0949  0.9690  -3.8483   0.0000   0.2409
  20.600   1.0955   0.15655   0.15268  -0.0451  0.0912  0.9689  -3.7237   0.0000   0.2465
  20.800   1.0905   0.16027   0.15645  -0.0481  0.0884  0.9691  -3.7107   0.0000   0.2489
  21.000   1.1038   0.16083   0.15699  -0.0489  0.0869  0.9696  -3.7950   0.0000   0.2485
  21.200   1.1239   0.16024   0.15635  -0.0489  0.0857  0.9703  -3.9208   0.0000   0.2470
  21.400   1.0783   0.17095   0.16726  -0.0572  0.0806  0.9701  -3.6783   0.0000   0.2561
  21.600   1.0888   0.17201   0.16833  -0.0585  0.0791  0.9706  -3.7515   0.0000   0.2562
  21.800   1.1044   0.17172   0.16801  -0.0585  0.0781  0.9713  -3.8608   0.0000   0.2548
  22.000   1.0682   0.18124   0.17768  -0.0661  0.0733  0.9711  -3.6471   0.0000   0.2633
  22.200   1.0760   0.18252   0.17897  -0.0675  0.0717  0.9716  -3.7059   0.0000   0.2635
  22.400   1.0900   0.18267   0.17910  -0.0681  0.0708  0.9721  -3.8068   0.0000   0.2626
  22.600   1.1078   0.18215   0.17855  -0.0681  0.0700  0.9726  -3.9336   0.0000   0.2609
  22.800   1.0658   0.19318   0.18975  -0.0771  0.0646  0.9722  -3.6520   0.0000   0.2715
  23.000   1.0794   0.19342   0.18997  -0.0778  0.0639  0.9726  -3.7529   0.0000   0.2705
  23.200   1.0952   0.19322   0.18976  -0.0783  0.0632  0.9730  -3.8698   0.0000   0.2692
  23.400   1.1134   0.19258   0.18909  -0.0784  0.0627  0.9734  -4.0039   0.0000   0.2673
  23.600   1.0705   0.20418   0.20085  -0.0878  0.0572  0.9731  -3.6816   0.0000   0.2788
  23.800   1.0850   0.20416   0.20082  -0.0885  0.0568  0.9735  -3.7931   0.0000   0.2776
  24.000   1.1004   0.20392   0.20057  -0.0890  0.0563  0.9739  -3.9127   0.0000   0.2761
  24.400   1.0638   0.21782   0.21461  -0.1007  0.0494  0.9740  -3.5813   0.0000   0.2892
  24.600   1.0846   0.21613   0.21291  -0.1002  0.0499  0.9747  -3.7594   0.0000   0.2860


