xflr5 v6.47

 Calculated polar for: NACA24018_theta30_Ku4.5_Kl0.5_d0.35_delta13.38

 1 1 Reynolds number fixed          Mach number fixed         

 xtrf =   1.000 (top)        1.000 (bottom)
 Mach =   0.000     Re =     1.000 e 6     Ncrit =   5.000

  alpha     CL        CD       CDp       Cm    Top Xtr Bot Xtr   Cpmin    Chinge    XCp    
 ------- -------- --------- --------- -------- ------- ------- -------- --------- ---------
 -10.400   0.4877   0.07745   0.07426  -0.1628  0.6973  0.1135  -0.8772   0.0000   0.5848
 -10.200   0.5179   0.07814   0.07498  -0.1641  0.6895  0.1206  -0.8001   0.0000   0.5669
 -10.000   0.5556   0.07860   0.07545  -0.1662  0.6832  0.1295  -0.7597   0.0000   0.5486
  -9.800   0.5997   0.07864   0.07550  -0.1692  0.6773  0.1415  -0.8021   0.0000   0.5308
  -9.600   0.6544   0.07838   0.07525  -0.1734  0.6701  0.1587  -0.8536   0.0000   0.5132
  -9.400   0.7257   0.07731   0.07412  -0.1799  0.6575  0.1827  -0.9203   0.0000   0.4957
  -9.200   0.8176   0.07689   0.07349  -0.1894  0.6160  0.2291  -1.0057   0.0000   0.4792
  -9.000   0.8412   0.07903   0.07541  -0.1899  0.5638  0.2525  -1.0328   0.0000   0.4727
  -8.800   0.9655   0.08361   0.08002  -0.2166  0.5916  0.3144  -1.2357   0.0000   0.4726
  -8.600   0.9896   0.08673   0.08289  -0.2175  0.5346  0.3427  -1.2222   0.0000   0.4675
  -8.400   1.0152   0.08882   0.08482  -0.2185  0.4992  0.3629  -1.2240   0.0000   0.4623
  -8.200   1.0395   0.09035   0.08622  -0.2191  0.4740  0.3779  -1.2539   0.0000   0.4574
  -8.000   1.0642   0.09168   0.08746  -0.2197  0.4530  0.3922  -1.2857   0.0000   0.4527
  -7.800   1.0869   0.09274   0.08844  -0.2199  0.4343  0.4017  -1.3170   0.0000   0.4482
  -7.600   1.1093   0.09372   0.08933  -0.2201  0.4168  0.4109  -1.3485   0.0000   0.4439
  -7.400   1.1313   0.09464   0.09015  -0.2202  0.4012  0.4184  -1.3799   0.0000   0.4397
  -7.000   1.1755   0.09633   0.09172  -0.2204  0.3757  0.4332  -1.4434   0.0000   0.4319
  -6.800   1.1970   0.09712   0.09243  -0.2204  0.3640  0.4389  -1.4749   0.0000   0.4281
  -6.600   1.2163   0.09770   0.09299  -0.2201  0.3553  0.4454  -1.5046   0.0000   0.4246
  -6.400   1.2369   0.09840   0.09363  -0.2199  0.3467  0.4517  -1.5363   0.0000   0.4211
  -6.200   1.2601   0.09927   0.09446  -0.2202  0.3400  0.4574  -1.5713   0.0000   0.4177
  -6.000   1.2787   0.09979   0.09495  -0.2197  0.3334  0.4615  -1.6024   0.0000   0.4145
  -5.800   1.2953   0.10017   0.09530  -0.2190  0.3264  0.4653  -1.6326   0.0000   0.4114
  -5.600   1.3130   0.10062   0.09573  -0.2184  0.3209  0.4688  -1.6641   0.0000   0.4083
  -5.400   1.3321   0.10118   0.09626  -0.2180  0.3153  0.4725  -1.6971   0.0000   0.4053
  -5.200   1.3523   0.10184   0.09688  -0.2177  0.3095  0.4759  -1.7315   0.0000   0.4024
  -5.000   1.3727   0.10252   0.09751  -0.2176  0.3038  0.4785  -1.7663   0.0000   0.3995
  -4.800   1.3915   0.10306   0.09804  -0.2171  0.2997  0.4809  -1.7996   0.0000   0.3967
  -4.600   1.4062   0.10329   0.09826  -0.2161  0.2954  0.4837  -1.8286   0.0000   0.3940
  -4.400   1.4215   0.10357   0.09853  -0.2151  0.2912  0.4862  -1.8605   0.0000   0.3914
  -4.200   1.4374   0.10391   0.09884  -0.2143  0.2870  0.4887  -1.8937   0.0000   0.3888
  -4.000   1.4541   0.10430   0.09922  -0.2135  0.2837  0.4911  -1.9281   0.0000   0.3863
  -3.800   1.4717   0.10475   0.09966  -0.2129  0.2803  0.4940  -1.9637   0.0000   0.3838
  -3.600   1.4904   0.10530   0.10020  -0.2125  0.2761  0.4970  -2.0008   0.0000   0.3814
  -3.400   1.5098   0.10595   0.10080  -0.2121  0.2713  0.4997  -2.0390   0.0000   0.3790
  -3.200   1.5289   0.10657   0.10139  -0.2118  0.2669  0.5018  -2.0769   0.0000   0.3767
  -3.000   1.5425   0.10670   0.10154  -0.2106  0.2644  0.5038  -2.1083   0.0000   0.3744
  -2.800   1.5565   0.10689   0.10173  -0.2094  0.2615  0.5058  -2.1405   0.0000   0.3721
  -2.600   1.5709   0.10711   0.10196  -0.2084  0.2585  0.5078  -2.1732   0.0000   0.3699
  -2.400   1.5856   0.10738   0.10222  -0.2073  0.2552  0.5100  -2.2079   0.0000   0.3677
  -2.200   1.6008   0.10771   0.10253  -0.2064  0.2519  0.5126  -2.2448   0.0000   0.3655
  -2.000   1.6171   0.10812   0.10293  -0.2056  0.2488  0.5154  -2.2833   0.0000   0.3634
  -1.800   1.6351   0.10863   0.10344  -0.2051  0.2459  0.5182  -2.3242   0.0000   0.3614
  -1.600   1.6538   0.10924   0.10403  -0.2047  0.2421  0.5206  -2.3664   0.0000   0.3594
  -1.400   1.6736   0.10996   0.10473  -0.2044  0.2379  0.5229  -2.4101   0.0000   0.3574
  -1.200   1.6861   0.11012   0.10488  -0.2031  0.2347  0.5246  -2.4444   0.0000   0.3554
  -1.000   1.6983   0.11023   0.10499  -0.2018  0.2321  0.5263  -2.4791   0.0000   0.3534
  -0.800   1.7111   0.11035   0.10513  -0.2005  0.2302  0.5281  -2.5154   0.0000   0.3514
  -0.600   1.7241   0.11051   0.10531  -0.1992  0.2276  0.5299  -2.5522   0.0000   0.3495
  -0.400   1.7373   0.11073   0.10553  -0.1980  0.2247  0.5320  -2.5926   0.0000   0.3476
  -0.200   1.7510   0.11102   0.10581  -0.1969  0.2213  0.5344  -2.6338   0.0000   0.3458
   0.000   1.7657   0.11143   0.10620  -0.1960  0.2177  0.5369  -2.6767   0.0000   0.3439
   0.200   1.7824   0.11195   0.10672  -0.1953  0.2150  0.5394  -2.7228   0.0000   0.3422
   0.400   1.8000   0.11255   0.10732  -0.1948  0.2119  0.5419  -2.7707   0.0000   0.3404
   0.600   1.8184   0.11325   0.10800  -0.1944  0.2082  0.5442  -2.8199   0.0000   0.3388
   0.800   1.8304   0.11349   0.10824  -0.1931  0.2052  0.5458  -2.8596   0.0000   0.3370
   1.000   1.8407   0.11365   0.10840  -0.1916  0.2023  0.5472  -2.8977   0.0000   0.3352
   1.200   1.8511   0.11382   0.10860  -0.1901  0.2004  0.5486  -2.9399   0.0000   0.3335
   1.400   1.8615   0.11401   0.10880  -0.1885  0.1981  0.5502  -2.9821   0.0000   0.3317
   1.600   1.8718   0.11422   0.10903  -0.1871  0.1952  0.5518  -3.0245   0.0000   0.3300
   2.000   1.8932   0.11485   0.10964  -0.1843  0.1881  0.5553  -3.1127   0.0000   0.3266
   2.200   1.9061   0.11526   0.11007  -0.1832  0.1856  0.5573  -3.1637   0.0000   0.3250
   2.400   1.9203   0.11576   0.11057  -0.1823  0.1829  0.5596  -3.2173   0.0000   0.3234
   2.600   1.9355   0.11637   0.11119  -0.1815  0.1798  0.5621  -3.2729   0.0000   0.3219
   2.800   1.9518   0.11718   0.11197  -0.1809  0.1761  0.5647  -3.3329   0.0000   0.3204
   3.000   1.9657   0.11780   0.11258  -0.1801  0.1728  0.5667  -3.3944   0.0000   0.3189
   3.200   1.9743   0.11792   0.11273  -0.1784  0.1705  0.5679  -3.4455   0.0000   0.3173
   3.400   1.9827   0.11808   0.11291  -0.1768  0.1677  0.5691  -3.4964   0.0000   0.3157
   3.600   1.9906   0.11832   0.11315  -0.1751  0.1644  0.5702  -3.5466   0.0000   0.3141
   3.800   1.9975   0.11871   0.11353  -0.1734  0.1610  0.5713  -3.5955   0.0000   0.3125
   4.000   2.0056   0.11906   0.11391  -0.1718  0.1584  0.5723  -3.6521   0.0000   0.3110
   4.200   2.0137   0.11942   0.11430  -0.1703  0.1555  0.5734  -3.7093   0.0000   0.3094
   4.400   2.0219   0.11985   0.11472  -0.1688  0.1522  0.5745  -3.7669   0.0000   0.3079
   4.600   2.0300   0.12036   0.11522  -0.1673  0.1487  0.5758  -3.8282   0.0000   0.3064
   4.800   2.0396   0.12082   0.11570  -0.1660  0.1460  0.5773  -3.8940   0.0000   0.3050
   5.000   2.0496   0.12136   0.11626  -0.1648  0.1428  0.5790  -3.9624   0.0000   0.3035
   5.200   2.0598   0.12207   0.11696  -0.1637  0.1392  0.5812  -4.0332   0.0000   0.3021
   5.400   2.0725   0.12310   0.11799  -0.1630  0.1358  0.5846  -4.1113   0.0000   0.3008
   5.600   2.0877   0.12431   0.11920  -0.1626  0.1321  0.5880  -4.1986   0.0000   0.2996
   5.800   2.0921   0.12483   0.11973  -0.1609  0.1288  0.5887  -4.2615   0.0000   0.2981
   6.000   2.0964   0.12538   0.12028  -0.1592  0.1257  0.5894  -4.3247   0.0000   0.2967
   6.200   2.1021   0.12582   0.12075  -0.1576  0.1231  0.5901  -4.3919   0.0000   0.2952
   6.400   2.1073   0.12633   0.12127  -0.1560  0.1201  0.5907  -4.4579   0.0000   0.2938
   6.600   2.1106   0.12705   0.12200  -0.1544  0.1172  0.5914  -4.5195   0.0000   0.2924
   6.800   2.1143   0.12775   0.12273  -0.1528  0.1147  0.5920  -4.5831   0.0000   0.2910
   7.000   2.1187   0.12838   0.12339  -0.1513  0.1117  0.5927  -4.6529   0.0000   0.2896
   7.200   2.1223   0.12912   0.12413  -0.1498  0.1082  0.5934  -4.7204   0.0000   0.2883
   7.400   2.1247   0.13001   0.12504  -0.1484  0.1053  0.5942  -4.7847   0.0000   0.2870
   7.600   2.1277   0.13086   0.12591  -0.1469  0.1024  0.5950  -4.8511   0.0000   0.2857
   7.800   2.1302   0.13174   0.12680  -0.1456  0.0993  0.5960  -4.9160   0.0000   0.2844
   8.000   2.1320   0.13274   0.12782  -0.1442  0.0967  0.5970  -4.9792   0.0000   0.2831
   8.200   2.1348   0.13370   0.12882  -0.1430  0.0940  0.5981  -5.0456   0.0000   0.2819
   8.400   2.1369   0.13480   0.12993  -0.1419  0.0910  0.5993  -5.1102   0.0000   0.2807
   8.600   2.1385   0.13609   0.13124  -0.1409  0.0884  0.6008  -5.1736   0.0000   0.2796
   8.800   2.1429   0.13735   0.13253  -0.1402  0.0856  0.6028  -5.2462   0.0000   0.2785
   9.000   2.1561   0.13982   0.13499  -0.1410  0.0818  0.6089  -5.3509   0.0000   0.2777
   9.200   2.1561   0.14088   0.13609  -0.1400  0.0798  0.6093  -5.4087   0.0000   0.2766
   9.400   2.1550   0.14207   0.13732  -0.1390  0.0775  0.6098  -5.4629   0.0000   0.2756
   9.600   2.1527   0.14339   0.13866  -0.1381  0.0751  0.6102  -5.5129   0.0000   0.2745
   9.800   2.1508   0.14467   0.13998  -0.1373  0.0730  0.6106  -5.5642   0.0000   0.2736
  10.000   2.1490   0.14596   0.14131  -0.1365  0.0707  0.6110  -5.6154   0.0000   0.2726
  10.200   2.1455   0.14741   0.14279  -0.1359  0.0683  0.6115  -5.6608   0.0000   0.2717
  10.400   2.1421   0.14887   0.14430  -0.1355  0.0664  0.6119  -5.7096   0.0000   0.2709
  10.600   2.1398   0.15022   0.14569  -0.1350  0.0643  0.6124  -5.7623   0.0000   0.2701
  10.800   2.1351   0.15184   0.14735  -0.1348  0.0625  0.6129  -5.8063   0.0000   0.2694
  11.000   2.1315   0.15335   0.14891  -0.1346  0.0609  0.6134  -5.8533   0.0000   0.2687
  11.200   2.1282   0.15485   0.15045  -0.1345  0.0593  0.6139  -5.9016   0.0000   0.2680
  11.400   2.1245   0.15640   0.15206  -0.1346  0.0577  0.6144  -5.9475   0.0000   0.2674
  11.600   2.1194   0.15813   0.15383  -0.1349  0.0562  0.6149  -5.9878   0.0000   0.2669
  11.800   2.1147   0.15985   0.15561  -0.1353  0.0549  0.6154  -6.0287   0.0000   0.2664
  12.000   2.1117   0.16139   0.15720  -0.1356  0.0534  0.6160  -6.0795   0.0000   0.2659
  12.200   2.1061   0.16324   0.15911  -0.1363  0.0520  0.6166  -6.1197   0.0000   0.2656
  12.400   2.1001   0.16516   0.16107  -0.1371  0.0506  0.6172  -6.1570   0.0000   0.2653
  12.600   2.0953   0.16695   0.16292  -0.1379  0.0493  0.6179  -6.1992   0.0000   0.2650
  12.800   2.0899   0.16886   0.16489  -0.1390  0.0479  0.6187  -6.2379   0.0000   0.2648
  13.000   2.0845   0.17080   0.16688  -0.1401  0.0465  0.6196  -6.2756   0.0000   0.2647
  13.200   2.0769   0.17305   0.16918  -0.1417  0.0453  0.6205  -6.3024   0.0000   0.2648
  13.400   2.0723   0.17502   0.17121  -0.1430  0.0441  0.6217  -6.3421   0.0000   0.2647
  13.600   2.0680   0.17708   0.17332  -0.1446  0.0427  0.6233  -6.3826   0.0000   0.2647
  13.800   2.0692   0.18043   0.17671  -0.1481  0.0410  0.6299  -6.4446   0.0000   0.2653
  14.000   2.0624   0.18235   0.17869  -0.1496  0.0400  0.6302  -6.4721   0.0000   0.2654
  14.200   2.0553   0.18431   0.18072  -0.1511  0.0390  0.6305  -6.4974   0.0000   0.2655
  14.400   2.0475   0.18639   0.18285  -0.1529  0.0380  0.6308  -6.5182   0.0000   0.2657
  14.600   2.0398   0.18846   0.18498  -0.1547  0.0370  0.6311  -6.5386   0.0000   0.2659
  14.800   2.0313   0.19069   0.18726  -0.1568  0.0362  0.6314  -6.5529   0.0000   0.2663
  15.000   2.0259   0.19248   0.18911  -0.1584  0.0354  0.6317  -6.5840   0.0000   0.2663
  15.200   2.0184   0.19458   0.19127  -0.1604  0.0345  0.6320  -6.6022   0.0000   0.2667
  15.400   2.0121   0.19651   0.19325  -0.1623  0.0337  0.6323  -6.6264   0.0000   0.2669
  15.600   2.0035   0.19877   0.19557  -0.1646  0.0329  0.6326  -6.6366   0.0000   0.2674
  15.800   1.9978   0.20064   0.19748  -0.1665  0.0322  0.6330  -6.6624   0.0000   0.2676
  16.000   1.9918   0.20255   0.19944  -0.1684  0.0315  0.6333  -6.6855   0.0000   0.2679
  16.200   1.9860   0.20442   0.20137  -0.1704  0.0307  0.6337  -6.7094   0.0000   0.2681
  16.400   1.9805   0.20625   0.20324  -0.1723  0.0299  0.6340  -6.7344   0.0000   0.2683
  16.600   1.9725   0.20847   0.20551  -0.1749  0.0292  0.6344  -6.7426   0.0000   0.2689
  16.800   1.9678   0.21019   0.20727  -0.1767  0.0286  0.6348  -6.7710   0.0000   0.2691
  17.000   1.9627   0.21198   0.20911  -0.1787  0.0278  0.6352  -6.7958   0.0000   0.2694
  17.200   1.9572   0.21383   0.21101  -0.1809  0.0271  0.6356  -6.8171   0.0000   0.2697
  17.400   1.9526   0.21555   0.21277  -0.1829  0.0263  0.6361  -6.8437   0.0000   0.2699
  17.800   1.9417   0.21929   0.21659  -0.1874  0.0251  0.6372  -6.8823   0.0000   0.2707
  18.000   1.9383   0.22083   0.21817  -0.1892  0.0244  0.6378  -6.9150   0.0000   0.2708


