xflr5 v6.47

 Calculated polar for: NACA24018_theta30_Ku4.5_Kl0.5_d0.00_delta0.00

 1 1 Reynolds number fixed          Mach number fixed         

 xtrf =   1.000 (top)        1.000 (bottom)
 Mach =   0.000     Re =     3.200 e 6     Ncrit =   5.000

  alpha     CL        CD       CDp       Cm    Top Xtr Bot Xtr   Cpmin    Chinge    XCp    
 ------- -------- --------- --------- -------- ------- ------- -------- --------- ---------
 -15.000  -1.3044   0.01758   0.01277  -0.0532  0.9994  0.0197  -7.9411   0.0000   0.1872
 -14.800  -1.2846   0.01715   0.01232  -0.0534  0.9989  0.0199  -7.7838   0.0000   0.1867
 -14.600  -1.2646   0.01674   0.01190  -0.0537  0.9983  0.0201  -7.6264   0.0000   0.1862
 -14.400  -1.2441   0.01635   0.01151  -0.0539  0.9975  0.0203  -7.4686   0.0000   0.1855
 -14.200  -1.2243   0.01597   0.01112  -0.0540  0.9959  0.0204  -7.3141   0.0000   0.1850
 -14.000  -1.2081   0.01557   0.01071  -0.0534  0.9937  0.0208  -7.1753   0.0000   0.1853
 -13.800  -1.1902   0.01518   0.01032  -0.0531  0.9918  0.0211  -7.0307   0.0000   0.1851
 -13.600  -1.1712   0.01482   0.00996  -0.0529  0.9900  0.0214  -6.8831   0.0000   0.1848
 -13.400  -1.1512   0.01448   0.00961  -0.0530  0.9883  0.0217  -6.7327   0.0000   0.1843
 -13.200  -1.1329   0.01416   0.00929  -0.0526  0.9856  0.0220  -6.5897   0.0000   0.1841
 -13.000  -1.1139   0.01385   0.00898  -0.0523  0.9819  0.0223  -6.4454   0.0000   0.1839
 -12.800  -1.0909   0.01354   0.00867  -0.0528  0.9792  0.0226  -6.2881   0.0000   0.1826
 -12.600  -1.0677   0.01326   0.00838  -0.0533  0.9751  0.0229  -6.1345   0.0000   0.1813
 -12.400  -1.0410   0.01297   0.00809  -0.0545  0.9713  0.0231  -5.9732   0.0000   0.1791
 -12.200  -1.0127   0.01269   0.00780  -0.0560  0.9674  0.0234  -5.8082   0.0000   0.1762
 -12.000  -0.9825   0.01238   0.00750  -0.0580  0.9621  0.0240  -5.6399   0.0000   0.1727
 -11.800  -0.9472   0.01207   0.00719  -0.0610  0.9578  0.0246  -5.4567   0.0000   0.1674
 -11.600  -0.9066   0.01176   0.00689  -0.0651  0.9520  0.0252  -5.2594   0.0000   0.1600
 -11.400  -0.8636   0.01148   0.00659  -0.0697  0.9422  0.0258  -5.0578   0.0000   0.1510
 -11.200  -0.8283   0.01126   0.00632  -0.0727  0.9256  0.0262  -4.8826   0.0000   0.1440
 -11.000  -0.8070   0.01112   0.00611  -0.0727  0.9046  0.0264  -4.7510   0.0000   0.1419
 -10.800  -0.7931   0.01099   0.00590  -0.0711  0.8829  0.0269  -4.6430   0.0000   0.1425
 -10.600  -0.7808   0.01086   0.00571  -0.0691  0.8616  0.0274  -4.5430   0.0000   0.1438
 -10.400  -0.7695   0.01077   0.00553  -0.0669  0.8378  0.0278  -4.4476   0.0000   0.1456
 -10.200  -0.7579   0.01067   0.00536  -0.0648  0.8126  0.0283  -4.3521   0.0000   0.1474
 -10.000  -0.7460   0.01059   0.00520  -0.0627  0.7875  0.0288  -4.2562   0.0000   0.1491
  -9.800  -0.7336   0.01052   0.00505  -0.0606  0.7636  0.0292  -4.1598   0.0000   0.1506
  -9.600  -0.7202   0.01044   0.00490  -0.0588  0.7415  0.0296  -4.0616   0.0000   0.1518
  -9.400  -0.7068   0.01035   0.00475  -0.0570  0.7209  0.0300  -3.9641   0.0000   0.1531
  -9.200  -0.6933   0.01026   0.00460  -0.0552  0.7015  0.0306  -3.8674   0.0000   0.1543
  -9.000  -0.6794   0.01016   0.00445  -0.0534  0.6833  0.0312  -3.7704   0.0000   0.1554
  -8.800  -0.6650   0.01006   0.00431  -0.0518  0.6686  0.0318  -3.6727   0.0000   0.1564
  -8.600  -0.6504   0.00997   0.00418  -0.0501  0.6541  0.0324  -3.5757   0.0000   0.1573
  -8.400  -0.6357   0.00990   0.00407  -0.0485  0.6399  0.0329  -3.4816   0.0000   0.1583
  -8.200  -0.6209   0.00984   0.00397  -0.0469  0.6266  0.0333  -3.3896   0.0000   0.1592
  -8.000  -0.6066   0.00978   0.00387  -0.0451  0.6135  0.0340  -3.2997   0.0000   0.1605
  -7.800  -0.5922   0.00972   0.00378  -0.0434  0.6003  0.0349  -3.2103   0.0000   0.1617
  -7.600  -0.5762   0.00965   0.00368  -0.0421  0.5878  0.0358  -3.1179   0.0000   0.1622
  -7.400  -0.5591   0.00958   0.00358  -0.0409  0.5748  0.0366  -3.0239   0.0000   0.1621
  -7.200  -0.5417   0.00952   0.00349  -0.0398  0.5621  0.0372  -2.9301   0.0000   0.1619
  -7.000  -0.5240   0.00946   0.00339  -0.0388  0.5511  0.0380  -2.8370   0.0000   0.1615
  -6.800  -0.5064   0.00938   0.00330  -0.0377  0.5411  0.0391  -2.7450   0.0000   0.1611
  -6.600  -0.4885   0.00932   0.00321  -0.0367  0.5307  0.0401  -2.6531   0.0000   0.1605
  -6.400  -0.4701   0.00925   0.00312  -0.0358  0.5212  0.0410  -2.5614   0.0000   0.1595
  -6.200  -0.4518   0.00920   0.00304  -0.0349  0.5105  0.0419  -2.4737   0.0000   0.1585
  -6.000  -0.4339   0.00915   0.00296  -0.0339  0.4974  0.0435  -2.3891   0.0000   0.1577
  -5.800  -0.4159   0.00911   0.00288  -0.0329  0.4836  0.0449  -2.3048   0.0000   0.1567
  -5.600  -0.3975   0.00907   0.00281  -0.0320  0.4699  0.0460  -2.2209   0.0000   0.1554
  -5.400  -0.3787   0.00903   0.00275  -0.0311  0.4586  0.0474  -2.1373   0.0000   0.1536
  -5.200  -0.3599   0.00897   0.00267  -0.0303  0.4498  0.0494  -2.0546   0.0000   0.1516
  -5.000  -0.3409   0.00893   0.00261  -0.0295  0.4405  0.0509  -1.9752   0.0000   0.1492
  -4.800  -0.3214   0.00889   0.00255  -0.0288  0.4321  0.0521  -1.8967   0.0000   0.1461
  -4.600  -0.3024   0.00884   0.00249  -0.0280  0.4235  0.0542  -1.8202   0.0000   0.1430
  -4.400  -0.2833   0.00880   0.00243  -0.0272  0.4134  0.0562  -1.7460   0.0000   0.1394
  -4.200  -0.2638   0.00877   0.00238  -0.0265  0.4039  0.0580  -1.6738   0.0000   0.1348
  -4.000  -0.2448   0.00873   0.00233  -0.0257  0.3944  0.0608  -1.6034   0.0000   0.1300
  -3.800  -0.2253   0.00871   0.00228  -0.0250  0.3854  0.0629  -1.5331   0.0000   0.1238
  -3.600  -0.2055   0.00868   0.00224  -0.0244  0.3779  0.0650  -1.4631   0.0000   0.1160
  -3.400  -0.1863   0.00865   0.00219  -0.0236  0.3688  0.0681  -1.3951   0.0000   0.1074
  -3.200  -0.1664   0.00862   0.00215  -0.0230  0.3612  0.0708  -1.3291   0.0000   0.0954
  -3.000  -0.1471   0.00859   0.00211  -0.0222  0.3533  0.0747  -1.2657   0.0000   0.0816
  -2.800  -0.1270   0.00855   0.00208  -0.0217  0.3476  0.0778  -1.2020   0.0000   0.0613
  -2.400  -0.0874   0.00849   0.00201  -0.0204  0.3355  0.0869  -1.0779   0.0000  -0.0047
  -2.200  -0.0679   0.00846   0.00198  -0.0197  0.3285  0.0926  -1.0202   0.0000  -0.0642
  -2.000  -0.0478   0.00843   0.00195  -0.0191  0.3233  0.0980  -0.9627   0.0000  -0.1794
  -1.800  -0.0279   0.00839   0.00192  -0.0185  0.3185  0.1047  -0.9065   0.0000  -0.4547
  -1.600  -0.0083   0.00836   0.00190  -0.0178  0.3132  0.1119  -0.8538   0.0000  -2.0213
  -1.400   0.0117   0.00831   0.00187  -0.0172  0.3096  0.1209  -0.8014   0.0000   1.7848
  -1.200   0.0316   0.00827   0.00185  -0.0166  0.3053  0.1305  -0.7814   0.0000   0.7934
  -1.000   0.0511   0.00824   0.00183  -0.0159  0.3003  0.1410  -0.8035   0.0000   0.5684
  -0.800   0.0706   0.00817   0.00181  -0.0152  0.2970  0.1563  -0.8263   0.0000   0.4677
  -0.600   0.0895   0.00807   0.00178  -0.0144  0.2944  0.1804  -0.8492   0.0000   0.4104
  -0.400   0.1075   0.00794   0.00174  -0.0135  0.2912  0.2117  -0.8716   0.0000   0.3726
  -0.200   0.1234   0.00775   0.00169  -0.0121  0.2872  0.2605  -0.8928   0.0000   0.3441
   0.000   0.1381   0.00750   0.00163  -0.0105  0.2838  0.3237  -0.9131   0.0000   0.3211
   0.200   0.1555   0.00736   0.00160  -0.0094  0.2812  0.3624  -0.9354   0.0000   0.3048
   0.400   0.1738   0.00727   0.00159  -0.0085  0.2780  0.3907  -0.9592   0.0000   0.2925
   0.600   0.1920   0.00720   0.00159  -0.0076  0.2749  0.4182  -0.9834   0.0000   0.2825
   0.800   0.2105   0.00713   0.00159  -0.0067  0.2713  0.4434  -1.0078   0.0000   0.2743
   1.000   0.2302   0.00709   0.00160  -0.0060  0.2694  0.4615  -1.0333   0.0000   0.2684
   1.200   0.2497   0.00706   0.00161  -0.0054  0.2667  0.4803  -1.0588   0.0000   0.2633
   1.400   0.2684   0.00701   0.00162  -0.0045  0.2633  0.5018  -1.0838   0.0000   0.2584
   1.600   0.2871   0.00699   0.00164  -0.0037  0.2596  0.5246  -1.1088   0.0000   0.2540
   1.800   0.3056   0.00694   0.00165  -0.0028  0.2569  0.5481  -1.1342   0.0000   0.2501
   2.000   0.3242   0.00688   0.00167  -0.0019  0.2548  0.5737  -1.1607   0.0000   0.2467
   2.200   0.3429   0.00685   0.00169  -0.0011  0.2520  0.5966  -1.1873   0.0000   0.2436
   2.400   0.3623   0.00686   0.00172  -0.0004  0.2489  0.6097  -1.2150   0.0000   0.2413
   2.600   0.3824   0.00690   0.00176   0.0002  0.2457  0.6169  -1.2442   0.0000   0.2396
   2.800   0.4027   0.00692   0.00179   0.0007  0.2436  0.6250  -1.2738   0.0000   0.2382
   3.000   0.4230   0.00694   0.00182   0.0012  0.2416  0.6325  -1.3036   0.0000   0.2369
   3.200   0.4430   0.00697   0.00186   0.0017  0.2387  0.6414  -1.3332   0.0000   0.2355
   3.400   0.4623   0.00700   0.00190   0.0024  0.2353  0.6506  -1.3624   0.0000   0.2340
   3.600   0.4817   0.00704   0.00195   0.0031  0.2320  0.6604  -1.3929   0.0000   0.2326
   3.800   0.5014   0.00706   0.00199   0.0037  0.2304  0.6714  -1.4242   0.0000   0.2315
   4.000   0.5209   0.00708   0.00203   0.0044  0.2285  0.6818  -1.4553   0.0000   0.2303
   4.200   0.5402   0.00711   0.00208   0.0051  0.2259  0.6910  -1.4865   0.0000   0.2291
   4.400   0.5591   0.00716   0.00213   0.0059  0.2228  0.7010  -1.5174   0.0000   0.2279
   4.600   0.5775   0.00720   0.00219   0.0067  0.2195  0.7114  -1.5481   0.0000   0.2265
   4.800   0.5964   0.00722   0.00224   0.0075  0.2180  0.7225  -1.5807   0.0000   0.2254
   5.000   0.6153   0.00725   0.00229   0.0082  0.2164  0.7339  -1.6136   0.0000   0.2243
   5.200   0.6337   0.00728   0.00235   0.0091  0.2141  0.7451  -1.6461   0.0000   0.2232
   5.400   0.6513   0.00733   0.00241   0.0101  0.2109  0.7555  -1.6781   0.0000   0.2218
   5.600   0.6677   0.00739   0.00248   0.0114  0.2072  0.7663  -1.7091   0.0000   0.2201
   5.800   0.6844   0.00742   0.00253   0.0126  0.2053  0.7775  -1.7405   0.0000   0.2185
   6.000   0.7004   0.00744   0.00258   0.0140  0.2034  0.7892  -1.7720   0.0000   0.2167
   6.200   0.7161   0.00748   0.00265   0.0154  0.2012  0.8011  -1.8059   0.0000   0.2149
   6.400   0.7318   0.00753   0.00273   0.0168  0.1989  0.8131  -1.8398   0.0000   0.2132
   6.600   0.7472   0.00760   0.00281   0.0183  0.1962  0.8254  -1.8736   0.0000   0.2115
   6.800   0.7626   0.00765   0.00290   0.0197  0.1939  0.8383  -1.9076   0.0000   0.2099
   7.000   0.7784   0.00770   0.00298   0.0211  0.1923  0.8519  -1.9421   0.0000   0.2084
   7.200   0.7937   0.00775   0.00307   0.0226  0.1900  0.8660  -1.9762   0.0000   0.2068
   7.400   0.8085   0.00782   0.00317   0.0241  0.1873  0.8804  -2.0100   0.0000   0.2052
   7.600   0.8234   0.00791   0.00329   0.0256  0.1841  0.8940  -2.0444   0.0000   0.2036
   7.800   0.8399   0.00798   0.00339   0.0268  0.1818  0.9074  -2.0819   0.0000   0.2026
   8.200   0.8808   0.00813   0.00362   0.0273  0.1781  0.9335  -2.1693   0.0000   0.2030
   8.400   0.9081   0.00827   0.00377   0.0261  0.1748  0.9441  -2.2212   0.0000   0.2051
   8.600   0.9397   0.00845   0.00394   0.0238  0.1707  0.9512  -2.2783   0.0000   0.2083
   8.800   0.9717   0.00858   0.00407   0.0215  0.1690  0.9569  -2.3384   0.0000   0.2113
   9.000   1.0051   0.00876   0.00424   0.0189  0.1656  0.9602  -2.4011   0.0000   0.2145
   9.200   1.0386   0.00900   0.00444   0.0161  0.1603  0.9628  -2.4643   0.0000   0.2176
   9.400   1.0697   0.00916   0.00460   0.0140  0.1575  0.9661  -2.5252   0.0000   0.2198
   9.600   1.0980   0.00934   0.00476   0.0124  0.1545  0.9693  -2.5866   0.0000   0.2213
   9.800   1.1256   0.00957   0.00496   0.0110  0.1504  0.9717  -2.6515   0.0000   0.2226
  10.000   1.1511   0.00976   0.00514   0.0100  0.1474  0.9745  -2.7140   0.0000   0.2234
  10.200   1.1732   0.00995   0.00532   0.0097  0.1443  0.9779  -2.7724   0.0000   0.2235
  10.600   1.2193   0.01041   0.00574   0.0087  0.1369  0.9819  -2.8998   0.0000   0.2241
  10.800   1.2397   0.01060   0.00593   0.0088  0.1350  0.9850  -2.9642   0.0000   0.2239
  11.000   1.2588   0.01081   0.00613   0.0091  0.1325  0.9877  -3.0269   0.0000   0.2234
  11.200   1.2807   0.01107   0.00637   0.0087  0.1293  0.9890  -3.0943   0.0000   0.2235
  11.400   1.3023   0.01131   0.00660   0.0084  0.1264  0.9903  -3.1619   0.0000   0.2235
  11.600   1.3225   0.01157   0.00684   0.0084  0.1227  0.9918  -3.2275   0.0000   0.2234
  11.800   1.3403   0.01193   0.00716   0.0087  0.1175  0.9936  -3.2893   0.0000   0.2229
  12.000   1.3589   0.01219   0.00742   0.0090  0.1149  0.9950  -3.3601   0.0000   0.2224
  12.200   1.3779   0.01251   0.00772   0.0090  0.1114  0.9967  -3.4354   0.0000   0.2221
  12.400   1.3980   0.01285   0.00804   0.0088  0.1077  0.9978  -3.5131   0.0000   0.2221
  12.600   1.4190   0.01314   0.00833   0.0085  0.1052  0.9985  -3.5934   0.0000   0.2220
  12.800   1.4381   0.01355   0.00871   0.0083  0.1011  0.9991  -3.6724   0.0000   0.2219
  13.000   1.4577   0.01392   0.00906   0.0081  0.0978  0.9996  -3.7590   0.0000   0.2217
  13.200   1.4765   0.01431   0.00944   0.0080  0.0944  1.0000  -3.8449   0.0000   0.2215
  13.400   1.4841   0.01474   0.00985   0.0100  0.0911  1.0000  -3.9075   0.0000   0.2198
  13.600   1.4928   0.01509   0.01021   0.0119  0.0891  1.0000  -3.9730   0.0000   0.2182
  13.800   1.5011   0.01548   0.01061   0.0138  0.0869  1.0000  -4.0396   0.0000   0.2166
  14.000   1.5077   0.01598   0.01110   0.0159  0.0841  1.0000  -4.1028   0.0000   0.2148
  14.200   1.5155   0.01646   0.01158   0.0177  0.0817  1.0000  -4.1692   0.0000   0.2133
  14.400   1.5241   0.01694   0.01206   0.0193  0.0796  1.0000  -4.2377   0.0000   0.2119
  14.600   1.5308   0.01754   0.01266   0.0210  0.0768  1.0000  -4.3037   0.0000   0.2104
  14.800   1.5377   0.01817   0.01328   0.0227  0.0743  1.0000  -4.3709   0.0000   0.2090
  15.000   1.5459   0.01876   0.01388   0.0241  0.0723  1.0000  -4.4413   0.0000   0.2078
  15.200   1.5516   0.01951   0.01463   0.0256  0.0697  1.0000  -4.5059   0.0000   0.2064
  15.400   1.5574   0.02029   0.01542   0.0271  0.0673  1.0000  -4.5730   0.0000   0.2051
  15.600   1.5650   0.02102   0.01616   0.0283  0.0655  1.0000  -4.6450   0.0000   0.2039
  15.800   1.5705   0.02190   0.01705   0.0295  0.0633  1.0000  -4.7112   0.0000   0.2027
  16.000   1.5749   0.02290   0.01805   0.0308  0.0610  1.0000  -4.7746   0.0000   0.2016
  16.200   1.5819   0.02377   0.01894   0.0317  0.0596  1.0000  -4.8476   0.0000   0.2006
  16.400   1.5871   0.02480   0.01999   0.0327  0.0578  1.0000  -4.9160   0.0000   0.1996
  16.600   1.5899   0.02605   0.02124   0.0337  0.0558  1.0000  -4.9792   0.0000   0.1985
  16.800   1.5947   0.02720   0.02241   0.0344  0.0543  1.0000  -5.0484   0.0000   0.1976
  17.000   1.5990   0.02843   0.02366   0.0351  0.0528  1.0000  -5.1166   0.0000   0.1967
  17.200   1.6009   0.02990   0.02516   0.0358  0.0510  1.0000  -5.1768   0.0000   0.1958
  17.400   1.6017   0.03150   0.02678   0.0364  0.0493  1.0000  -5.2354   0.0000   0.1950
  17.600   1.6048   0.03298   0.02828   0.0368  0.0482  1.0000  -5.3014   0.0000   0.1942
  17.800   1.6060   0.03466   0.03000   0.0372  0.0469  1.0000  -5.3614   0.0000   0.1935
  18.000   1.6049   0.03661   0.03197   0.0374  0.0456  1.0000  -5.4133   0.0000   0.1928
  18.200   1.6033   0.03864   0.03403   0.0376  0.0443  1.0000  -5.4633   0.0000   0.1921
  18.400   1.6039   0.04052   0.03596   0.0377  0.0436  1.0000  -5.5205   0.0000   0.1915
  18.600   1.6029   0.04261   0.03808   0.0377  0.0427  1.0000  -5.5721   0.0000   0.1909
  18.800   1.6000   0.04492   0.04044   0.0376  0.0418  1.0000  -5.6165   0.0000   0.1904
  19.000   1.5943   0.04756   0.04312   0.0374  0.0408  1.0000  -5.6507   0.0000   0.1898
  19.200   1.5873   0.05042   0.04603   0.0370  0.0398  1.0000  -5.6792   0.0000   0.1894
  19.400   1.5827   0.05307   0.04872   0.0366  0.0392  1.0000  -5.7162   0.0000   0.1890
  19.600   1.5769   0.05587   0.05158   0.0361  0.0386  1.0000  -5.7481   0.0000   0.1886
  19.800   1.5694   0.05891   0.05467   0.0355  0.0378  1.0000  -5.7730   0.0000   0.1882
  20.000   1.5599   0.06223   0.05805   0.0348  0.0371  1.0000  -5.7895   0.0000   0.1880
  20.200   1.5473   0.06596   0.06184   0.0339  0.0364  1.0000  -5.7936   0.0000   0.1877
  20.400   1.5336   0.06988   0.06582   0.0329  0.0357  1.0000  -5.7919   0.0000   0.1875
  20.600   1.5215   0.07366   0.06966   0.0319  0.0352  1.0000  -5.7956   0.0000   0.1874
  20.800   1.5099   0.07743   0.07350   0.0308  0.0347  1.0000  -5.7998   0.0000   0.1874
  21.000   1.4971   0.08137   0.07750   0.0296  0.0343  1.0000  -5.7985   0.0000   0.1874
  21.200   1.4835   0.08548   0.08168   0.0283  0.0338  1.0000  -5.7925   0.0000   0.1874
  21.400   1.4691   0.08974   0.08601   0.0269  0.0333  1.0000  -5.7819   0.0000   0.1876
  21.600   1.4536   0.09416   0.09049   0.0253  0.0328  1.0000  -5.7667   0.0000   0.1878
  21.800   1.4378   0.09869   0.09508   0.0237  0.0322  1.0000  -5.7486   0.0000   0.1881
  22.000   1.4227   0.10321   0.09966   0.0219  0.0316  1.0000  -5.7313   0.0000   0.1885
  22.200   1.4129   0.10697   0.10348   0.0205  0.0312  1.0000  -5.7364   0.0000   0.1889
  22.400   1.4010   0.11108   0.10764   0.0188  0.0308  1.0000  -5.7305   0.0000   0.1893
  22.600   1.3886   0.11531   0.11193   0.0170  0.0304  1.0000  -5.7210   0.0000   0.1899
  22.800   1.3807   0.11894   0.11560   0.0153  0.0298  1.0000  -5.7305   0.0000   0.1904
  23.000   1.3680   0.12327   0.11998   0.0134  0.0293  1.0000  -5.7164   0.0000   0.1911
  23.200   1.3562   0.12750   0.12426   0.0114  0.0287  1.0000  -5.7060   0.0000   0.1918
  23.400   1.3478   0.13125   0.12805   0.0095  0.0281  1.0000  -5.7107   0.0000   0.1925
  23.600   1.3391   0.13510   0.13195   0.0075  0.0277  1.0000  -5.7122   0.0000   0.1933
  23.800   1.3350   0.13827   0.13515   0.0058  0.0273  1.0000  -5.7362   0.0000   0.1940
  24.000   1.3274   0.14198   0.13892   0.0038  0.0268  1.0000  -5.7421   0.0000   0.1948
  24.200   1.3223   0.14530   0.14226   0.0019  0.0263  1.0000  -5.7600   0.0000   0.1956
  24.400   1.3169   0.14869   0.14569  -0.0000  0.0257  1.0000  -5.7747   0.0000   0.1965
  24.600   1.3088   0.15253   0.14958  -0.0023  0.0252  1.0000  -5.7739   0.0000   0.1976
  24.800   1.3058   0.15558   0.15265  -0.0042  0.0246  1.0000  -5.7995   0.0000   0.1984
  25.000   1.2997   0.15917   0.15628  -0.0064  0.0243  1.0000  -5.8062   0.0000   0.1994


