xflr5 v6.47

 Calculated polar for: NACA24018_theta30_Ku4.5_Kl0.5_d0.31_delta11.03

 1 1 Reynolds number fixed          Mach number fixed         

 xtrf =   1.000 (top)        1.000 (bottom)
 Mach =   0.000     Re =     2.000 e 6     Ncrit =   5.000

  alpha     CL        CD       CDp       Cm    Top Xtr Bot Xtr   Cpmin    Chinge    XCp    
 ------- -------- --------- --------- -------- ------- ------- -------- --------- ---------
 -15.000  -0.1957   0.04792   0.04433  -0.1615  0.7913  0.0428  -3.6811   0.0000  -0.6504
 -14.800  -0.1681   0.04830   0.04470  -0.1629  0.7913  0.0435  -3.5456   0.0000  -0.8040
 -14.600  -0.1411   0.04868   0.04509  -0.1642  0.7912  0.0441  -3.4136   0.0000  -1.0115
 -14.400  -0.1134   0.04911   0.04553  -0.1656  0.7912  0.0450  -3.2812   0.0000  -1.3288
 -12.800   0.1856   0.04825   0.04474  -0.1866  0.7892  0.0568  -2.1823   0.0000   1.3090
 -12.600   0.1882   0.04998   0.04649  -0.1843  0.7849  0.0577  -2.1316   0.0000   1.2803
 -12.400   0.2151   0.05038   0.04690  -0.1853  0.7835  0.0593  -2.0325   0.0000   1.1544
 -10.200   0.5214   0.05613   0.05290  -0.1980  0.7675  0.0911  -1.0628   0.0000   0.6399
 -10.000   0.5010   0.05968   0.05650  -0.1926  0.7539  0.0915  -1.0607   0.0000   0.6441
  -9.800   0.5813   0.05702   0.05380  -0.2007  0.7231  0.1010  -0.9971   0.0000   0.6030
  -9.600   0.6386   0.05553   0.05166  -0.2057  0.6189  0.1096  -1.1057   0.0000   0.5788
  -9.400   0.6497   0.05700   0.05296  -0.2044  0.5784  0.1139  -1.0837   0.0000   0.5705
  -9.200   0.6704   0.05812   0.05398  -0.2045  0.5479  0.1204  -1.0768   0.0000   0.5601
  -9.000   0.6929   0.05913   0.05487  -0.2049  0.5200  0.1276  -1.0735   0.0000   0.5500
  -8.800   0.7170   0.06001   0.05567  -0.2054  0.4946  0.1358  -1.0736   0.0000   0.5401
  -8.600   0.7429   0.06090   0.05648  -0.2063  0.4711  0.1461  -1.0762   0.0000   0.5306
  -8.400   0.7703   0.06179   0.05731  -0.2073  0.4515  0.1585  -1.0809   0.0000   0.5215
  -8.200   0.7991   0.06271   0.05820  -0.2086  0.4350  0.1737  -1.0872   0.0000   0.5127
  -8.000   0.8292   0.06371   0.05916  -0.2100  0.4183  0.1924  -1.0946   0.0000   0.5045
  -7.800   0.8641   0.06498   0.06040  -0.2123  0.4006  0.2188  -1.1058   0.0000   0.4963
  -7.400   0.9436   0.06812   0.06353  -0.2183  0.3671  0.2936  -1.1889   0.0000   0.4810
  -7.200   0.9854   0.06983   0.06526  -0.2216  0.3544  0.3361  -1.2347   0.0000   0.4740
  -7.000   1.0240   0.07140   0.06682  -0.2244  0.3436  0.3676  -1.2783   0.0000   0.4677
  -6.800   1.0529   0.07238   0.06779  -0.2255  0.3367  0.3828  -1.3142   0.0000   0.4624
  -6.600   1.0777   0.07312   0.06850  -0.2259  0.3290  0.3950  -1.3467   0.0000   0.4575
  -6.400   1.1050   0.07401   0.06938  -0.2268  0.3235  0.4074  -1.3817   0.0000   0.4527
  -6.200   1.1278   0.07462   0.06997  -0.2269  0.3183  0.4151  -1.4129   0.0000   0.4483
  -6.000   1.1535   0.07544   0.07076  -0.2274  0.3115  0.4252  -1.4469   0.0000   0.4439
  -5.800   1.1753   0.07599   0.07129  -0.2274  0.3063  0.4324  -1.4775   0.0000   0.4398
  -5.600   1.2016   0.07685   0.07214  -0.2280  0.3006  0.4408  -1.5124   0.0000   0.4358
  -5.400   1.2244   0.07750   0.07275  -0.2281  0.2943  0.4494  -1.5471   0.0000   0.4320
  -5.200   1.2502   0.07834   0.07359  -0.2287  0.2893  0.4598  -1.5851   0.0000   0.4283
  -5.000   1.2717   0.07890   0.07414  -0.2285  0.2862  0.4661  -1.6193   0.0000   0.4247
  -4.800   1.2912   0.07933   0.07455  -0.2281  0.2827  0.4695  -1.6517   0.0000   0.4214
  -4.600   1.3120   0.07986   0.07505  -0.2279  0.2783  0.4735  -1.6855   0.0000   0.4180
  -4.400   1.3328   0.08039   0.07555  -0.2276  0.2733  0.4773  -1.7209   0.0000   0.4148
  -4.200   1.3528   0.08085   0.07601  -0.2272  0.2708  0.4805  -1.7558   0.0000   0.4117
  -4.000   1.3721   0.08128   0.07643  -0.2268  0.2676  0.4834  -1.7902   0.0000   0.4087
  -3.800   1.3912   0.08170   0.07683  -0.2263  0.2644  0.4863  -1.8245   0.0000   0.4057
  -3.600   1.4099   0.08210   0.07721  -0.2257  0.2608  0.4887  -1.8586   0.0000   0.4029
  -3.200   1.4498   0.08308   0.07816  -0.2249  0.2543  0.4951  -1.9298   0.0000   0.3973
  -3.000   1.4695   0.08355   0.07863  -0.2245  0.2510  0.4984  -1.9654   0.0000   0.3946
  -2.800   1.4883   0.08398   0.07904  -0.2239  0.2468  0.5017  -2.0022   0.0000   0.3920
  -2.600   1.5066   0.08438   0.07941  -0.2233  0.2424  0.5047  -2.0398   0.0000   0.3894
  -2.400   1.5246   0.08476   0.07977  -0.2226  0.2394  0.5070  -2.0773   0.0000   0.3869
  -2.200   1.5425   0.08511   0.08012  -0.2219  0.2374  0.5087  -2.1148   0.0000   0.3845
  -2.000   1.5612   0.08554   0.08055  -0.2213  0.2350  0.5119  -2.1537   0.0000   0.3821
  -1.800   1.5798   0.08598   0.08098  -0.2207  0.2320  0.5149  -2.1924   0.0000   0.3797
  -1.600   1.5978   0.08639   0.08138  -0.2201  0.2284  0.5179  -2.2307   0.0000   0.3774
  -1.400   1.6156   0.08680   0.08176  -0.2194  0.2244  0.5211  -2.2700   0.0000   0.3751
  -1.200   1.6334   0.08718   0.08215  -0.2187  0.2224  0.5240  -2.3102   0.0000   0.3729
  -1.000   1.6508   0.08756   0.08252  -0.2179  0.2201  0.5264  -2.3500   0.0000   0.3707
  -0.800   1.6680   0.08792   0.08287  -0.2171  0.2174  0.5282  -2.3897   0.0000   0.3686
  -0.600   1.6853   0.08834   0.08327  -0.2163  0.2137  0.5312  -2.4298   0.0000   0.3664
  -0.400   1.7026   0.08877   0.08368  -0.2156  0.2093  0.5341  -2.4700   0.0000   0.3644
  -0.200   1.7200   0.08917   0.08409  -0.2148  0.2071  0.5368  -2.5125   0.0000   0.3623
   0.000   1.7371   0.08957   0.08449  -0.2140  0.2046  0.5397  -2.5566   0.0000   0.3603
   0.200   1.7541   0.08998   0.08489  -0.2132  0.2019  0.5425  -2.6006   0.0000   0.3583
   0.400   1.7706   0.09038   0.08528  -0.2123  0.1987  0.5450  -2.6441   0.0000   0.3563
   0.600   1.7866   0.09078   0.08565  -0.2114  0.1949  0.5469  -2.6872   0.0000   0.3544
   0.800   1.8027   0.09116   0.08604  -0.2104  0.1928  0.5494  -2.7307   0.0000   0.3525
   1.000   1.8185   0.09159   0.08647  -0.2095  0.1900  0.5521  -2.7777   0.0000   0.3506
   1.200   1.8336   0.09204   0.08691  -0.2084  0.1868  0.5546  -2.8240   0.0000   0.3487
   1.400   1.8485   0.09249   0.08736  -0.2073  0.1836  0.5572  -2.8700   0.0000   0.3469
   1.600   1.8634   0.09295   0.08781  -0.2063  0.1805  0.5600  -2.9164   0.0000   0.3451
   1.800   1.8786   0.09339   0.08826  -0.2052  0.1785  0.5626  -2.9634   0.0000   0.3433
   2.000   1.8935   0.09383   0.08869  -0.2042  0.1753  0.5647  -3.0102   0.0000   0.3415
   2.200   1.9078   0.09428   0.08912  -0.2030  0.1713  0.5663  -3.0612   0.0000   0.3397
   2.400   1.9216   0.09471   0.08953  -0.2018  0.1674  0.5684  -3.1124   0.0000   0.3380
   2.600   1.9361   0.09510   0.08993  -0.2007  0.1656  0.5709  -3.1652   0.0000   0.3363
   2.800   1.9504   0.09550   0.09034  -0.1996  0.1630  0.5733  -3.2178   0.0000   0.3346
   3.000   1.9641   0.09594   0.09077  -0.1984  0.1594  0.5759  -3.2698   0.0000   0.3329
   3.200   1.9773   0.09642   0.09122  -0.1972  0.1550  0.5785  -3.3214   0.0000   0.3312
   3.400   1.9915   0.09686   0.09167  -0.1960  0.1523  0.5809  -3.3829   0.0000   0.3296
   3.600   2.0052   0.09734   0.09214  -0.1949  0.1488  0.5830  -3.4440   0.0000   0.3279
   3.800   2.0182   0.09786   0.09264  -0.1937  0.1450  0.5847  -3.5042   0.0000   0.3263
   4.000   2.0314   0.09836   0.09314  -0.1925  0.1421  0.5860  -3.5668   0.0000   0.3247
   4.200   2.0440   0.09877   0.09356  -0.1911  0.1399  0.5881  -3.6330   0.0000   0.3231
   4.400   2.0552   0.09930   0.09408  -0.1897  0.1363  0.5904  -3.6972   0.0000   0.3215
   4.600   2.0647   0.09998   0.09474  -0.1881  0.1317  0.5926  -3.7581   0.0000   0.3199
   4.800   2.0756   0.10056   0.09533  -0.1867  0.1285  0.5950  -3.8222   0.0000   0.3183
   5.000   2.0861   0.10117   0.09593  -0.1852  0.1247  0.5972  -3.8885   0.0000   0.3167
   5.200   2.0959   0.10183   0.09657  -0.1837  0.1203  0.5991  -3.9577   0.0000   0.3151
   5.400   2.1073   0.10239   0.09714  -0.1824  0.1176  0.6010  -4.0310   0.0000   0.3136
   5.600   2.1183   0.10301   0.09775  -0.1810  0.1144  0.6028  -4.1039   0.0000   0.3121
   5.800   2.1285   0.10370   0.09843  -0.1796  0.1111  0.6045  -4.1756   0.0000   0.3106
   6.000   2.1393   0.10432   0.09905  -0.1782  0.1085  0.6060  -4.2489   0.0000   0.3091
   6.200   2.1476   0.10495   0.09969  -0.1766  0.1054  0.6081  -4.3166   0.0000   0.3076
   6.400   2.1534   0.10585   0.10058  -0.1748  0.1015  0.6097  -4.3845   0.0000   0.3060
   6.600   2.1610   0.10658   0.10133  -0.1732  0.0986  0.6114  -4.4582   0.0000   0.3045
   6.800   2.1689   0.10730   0.10205  -0.1716  0.0955  0.6130  -4.5329   0.0000   0.3030
   7.000   2.1757   0.10810   0.10284  -0.1699  0.0921  0.6147  -4.6053   0.0000   0.3016
   7.200   2.1838   0.10883   0.10358  -0.1684  0.0896  0.6163  -4.6816   0.0000   0.3001
   7.400   2.1903   0.10974   0.10450  -0.1668  0.0866  0.6180  -4.7542   0.0000   0.2987
   7.600   2.1946   0.11089   0.10564  -0.1651  0.0833  0.6197  -4.8214   0.0000   0.2972
   7.800   2.2021   0.11180   0.10657  -0.1637  0.0809  0.6215  -4.9048   0.0000   0.2958
   8.000   2.2088   0.11280   0.10757  -0.1623  0.0778  0.6231  -4.9869   0.0000   0.2945
   8.200   2.2143   0.11394   0.10870  -0.1608  0.0747  0.6244  -5.0656   0.0000   0.2931
   8.400   2.2184   0.11507   0.10985  -0.1592  0.0723  0.6256  -5.1401   0.0000   0.2917
   8.600   2.2209   0.11618   0.11097  -0.1575  0.0695  0.6270  -5.2099   0.0000   0.2903
   8.800   2.2244   0.11720   0.11200  -0.1559  0.0670  0.6284  -5.2828   0.0000   0.2890
   9.000   2.2266   0.11841   0.11324  -0.1543  0.0647  0.6297  -5.3520   0.0000   0.2876
   9.200   2.2278   0.11970   0.11454  -0.1528  0.0622  0.6309  -5.4183   0.0000   0.2863
   9.400   2.2303   0.12088   0.11574  -0.1513  0.0601  0.6322  -5.4890   0.0000   0.2850
   9.600   2.2318   0.12222   0.11711  -0.1499  0.0581  0.6337  -5.5563   0.0000   0.2838
   9.800   2.2320   0.12369   0.11860  -0.1486  0.0559  0.6352  -5.6198   0.0000   0.2826
  10.000   2.2334   0.12509   0.12002  -0.1473  0.0542  0.6368  -5.6873   0.0000   0.2814
  10.200   2.2344   0.12657   0.12154  -0.1462  0.0524  0.6383  -5.7535   0.0000   0.2802
  10.400   2.2348   0.12813   0.12312  -0.1452  0.0506  0.6396  -5.8176   0.0000   0.2791
  10.600   2.2347   0.12978   0.12480  -0.1442  0.0492  0.6409  -5.8802   0.0000   0.2781
  10.800   2.2365   0.13123   0.12629  -0.1434  0.0478  0.6420  -5.9494   0.0000   0.2770
  11.000   2.2362   0.13293   0.12802  -0.1427  0.0463  0.6430  -6.0133   0.0000   0.2761
  11.200   2.2347   0.13480   0.12992  -0.1420  0.0447  0.6439  -6.0744   0.0000   0.2751
  11.400   2.2340   0.13628   0.13144  -0.1413  0.0436  0.6451  -6.1384   0.0000   0.2742
  11.600   2.2316   0.13794   0.13315  -0.1407  0.0425  0.6463  -6.1954   0.0000   0.2733
  11.800   2.2290   0.13962   0.13487  -0.1401  0.0413  0.6475  -6.2517   0.0000   0.2725
  12.000   2.2250   0.14148   0.13677  -0.1398  0.0401  0.6485  -6.3037   0.0000   0.2717
  12.200   2.2217   0.14328   0.13862  -0.1395  0.0392  0.6496  -6.3606   0.0000   0.2710
  12.400   2.2195   0.14495   0.14034  -0.1393  0.0382  0.6506  -6.4216   0.0000   0.2703
  12.600   2.2155   0.14687   0.14231  -0.1393  0.0371  0.6515  -6.4748   0.0000   0.2697
  12.800   2.2101   0.14896   0.14445  -0.1396  0.0360  0.6524  -6.5213   0.0000   0.2692
  13.000   2.2059   0.15092   0.14645  -0.1399  0.0351  0.6533  -6.5727   0.0000   0.2687
  13.200   2.2026   0.15279   0.14837  -0.1402  0.0342  0.6544  -6.6272   0.0000   0.2682
  13.400   2.1977   0.15488   0.15052  -0.1408  0.0334  0.6553  -6.6744   0.0000   0.2678
  13.600   2.1923   0.15706   0.15274  -0.1415  0.0325  0.6563  -6.7185   0.0000   0.2675
  13.800   2.1867   0.15928   0.15501  -0.1425  0.0316  0.6574  -6.7610   0.0000   0.2673
  14.000   2.1820   0.16143   0.15723  -0.1434  0.0309  0.6585  -6.8066   0.0000   0.2671
  14.200   2.1771   0.16364   0.15950  -0.1446  0.0302  0.6596  -6.8507   0.0000   0.2670
  14.400   2.1723   0.16587   0.16177  -0.1458  0.0293  0.6608  -6.8947   0.0000   0.2668
  14.600   2.1656   0.16836   0.16432  -0.1473  0.0285  0.6618  -6.9288   0.0000   0.2669
  14.800   2.1580   0.17095   0.16696  -0.1491  0.0278  0.6625  -6.9573   0.0000   0.2671
  15.000   2.1524   0.17321   0.16928  -0.1506  0.0272  0.6633  -6.9950   0.0000   0.2671
  15.200   2.1460   0.17535   0.17148  -0.1520  0.0266  0.6641  -7.0287   0.0000   0.2671
  15.400   2.1375   0.17782   0.17400  -0.1538  0.0260  0.6648  -7.0501   0.0000   0.2674
  15.600   2.1289   0.18030   0.17654  -0.1557  0.0254  0.6655  -7.0703   0.0000   0.2676
  15.800   2.1209   0.18270   0.17899  -0.1575  0.0248  0.6662  -7.0928   0.0000   0.2679
  16.000   2.1122   0.18523   0.18159  -0.1596  0.0243  0.6668  -7.1098   0.0000   0.2683
  16.200   2.1058   0.18742   0.18384  -0.1614  0.0238  0.6675  -7.1386   0.0000   0.2685
  16.400   2.0982   0.18979   0.18627  -0.1634  0.0233  0.6681  -7.1601   0.0000   0.2688
  16.600   2.0899   0.19229   0.18882  -0.1656  0.0228  0.6688  -7.1765   0.0000   0.2692
  16.800   2.0828   0.19461   0.19119  -0.1677  0.0223  0.6694  -7.1988   0.0000   0.2696
  17.000   2.0736   0.19726   0.19391  -0.1703  0.0218  0.6701  -7.2073   0.0000   0.2702
  17.200   2.0677   0.19941   0.19610  -0.1723  0.0214  0.6708  -7.2350   0.0000   0.2705
  17.400   2.0605   0.20180   0.19855  -0.1746  0.0210  0.6716  -7.2531   0.0000   0.2710
  17.600   2.0555   0.20386   0.20065  -0.1766  0.0205  0.6724  -7.2838   0.0000   0.2712
  17.800   2.0495   0.20608   0.20293  -0.1788  0.0201  0.6733  -7.3075   0.0000   0.2716
  18.000   2.0428   0.20845   0.20535  -0.1813  0.0196  0.6743  -7.3256   0.0000   0.2721
  18.200   2.0380   0.21054   0.20747  -0.1834  0.0192  0.6754  -7.3552   0.0000   0.2724
  18.400   2.0297   0.21317   0.21015  -0.1864  0.0188  0.6763  -7.3609   0.0000   0.2732
  18.600   2.0266   0.21502   0.21204  -0.1883  0.0184  0.6775  -7.3995   0.0000   0.2733
  18.800   2.0220   0.21712   0.21419  -0.1906  0.0181  0.6785  -7.4271   0.0000   0.2737
  19.000   2.0166   0.21936   0.21647  -0.1932  0.0177  0.6795  -7.4486   0.0000   0.2742
  19.200   2.0135   0.22125   0.21839  -0.1953  0.0173  0.6804  -7.4847   0.0000   0.2745
  19.400   2.0073   0.22364   0.22083  -0.1981  0.0170  0.6811  -7.4983   0.0000   0.2751
  19.600   2.0029   0.22572   0.22294  -0.2006  0.0166  0.6817  -7.5239   0.0000   0.2756
  19.800   1.9984   0.22751   0.22477  -0.2027  0.0163  0.6824  -7.5506   0.0000   0.2758
  20.000   1.9924   0.22956   0.22688  -0.2051  0.0161  0.6831  -7.5650   0.0000   0.2764
  20.200   1.9885   0.23124   0.22860  -0.2071  0.0158  0.6837  -7.5948   0.0000   0.2766
  20.400   1.9853   0.23281   0.23020  -0.2089  0.0155  0.6844  -7.6289   0.0000   0.2767
  20.600   1.9799   0.23473   0.23217  -0.2113  0.0152  0.6850  -7.6459   0.0000   0.2771
  20.800   1.9746   0.23662   0.23409  -0.2137  0.0149  0.6857  -7.6632   0.0000   0.2776
  21.000   1.9710   0.23823   0.23574  -0.2157  0.0146  0.6864  -7.6921   0.0000   0.2778
  21.200   1.9659   0.24009   0.23763  -0.2181  0.0143  0.6871  -7.7092   0.0000   0.2782
  21.400   1.9596   0.24217   0.23976  -0.2209  0.0140  0.6877  -7.7147   0.0000   0.2789
  21.600   1.9573   0.24359   0.24121  -0.2227  0.0138  0.6885  -7.7519   0.0000   0.2789


