xflr5 v6.47

 Calculated polar for: NACA24018_theta30_Ku4.5_Kl0.5_d0.28_delta9.02

 1 1 Reynolds number fixed          Mach number fixed         

 xtrf =   1.000 (top)        1.000 (bottom)
 Mach =   0.000     Re =     3.200 e 6     Ncrit =   5.000

  alpha     CL        CD       CDp       Cm    Top Xtr Bot Xtr   Cpmin    Chinge    XCp    
 ------- -------- --------- --------- -------- ------- ------- -------- --------- ---------
 -15.000  -0.2931   0.03359   0.03000  -0.1675  0.8238  0.0359  -4.1043   0.0000  -0.3764
 -14.800  -0.2659   0.03377   0.03018  -0.1688  0.8238  0.0365  -3.9704   0.0000  -0.4439
 -14.600  -0.2383   0.03393   0.03035  -0.1702  0.8237  0.0369  -3.8370   0.0000  -0.5281
 -11.000   0.3120   0.03624   0.03294  -0.2004  0.8109  0.0606  -1.6826   0.0000   0.9204
 -10.800   0.3114   0.03798   0.03470  -0.1971  0.8057  0.0613  -1.6426   0.0000   0.9099
 -10.600   0.3246   0.03911   0.03586  -0.1960  0.8001  0.0631  -1.5776   0.0000   0.8787
 -10.200   0.3779   0.03943   0.03542  -0.1978  0.6304  0.0681  -1.4058   0.0000   0.7926
 -10.000   0.3950   0.04035   0.03621  -0.1973  0.5942  0.0706  -1.3401   0.0000   0.7670
  -9.800   0.4154   0.04105   0.03680  -0.1972  0.5627  0.0732  -1.2698   0.0000   0.7408
  -9.600   0.4389   0.04164   0.03730  -0.1977  0.5379  0.0763  -1.1954   0.0000   0.7148
  -9.400   0.4629   0.04216   0.03774  -0.1982  0.5161  0.0795  -1.1234   0.0000   0.6910
  -9.200   0.4864   0.04263   0.03814  -0.1986  0.4937  0.0820  -1.0550   0.0000   0.6699
  -9.000   0.5123   0.04315   0.03859  -0.1994  0.4734  0.0865  -0.9855   0.0000   0.6496
  -8.800   0.5372   0.04360   0.03898  -0.2000  0.4560  0.0902  -0.9768   0.0000   0.6316
  -8.600   0.5633   0.04408   0.03941  -0.2008  0.4390  0.0950  -0.9814   0.0000   0.6148
  -8.400   0.5890   0.04454   0.03982  -0.2016  0.4227  0.0999  -0.9858   0.0000   0.5995
  -8.200   0.6156   0.04502   0.04025  -0.2024  0.4071  0.1061  -0.9908   0.0000   0.5853
  -8.000   0.6429   0.04552   0.04072  -0.2034  0.3950  0.1127  -0.9969   0.0000   0.5721
  -7.800   0.6700   0.04601   0.04119  -0.2043  0.3847  0.1199  -1.0030   0.0000   0.5600
  -7.600   0.6977   0.04652   0.04167  -0.2054  0.3738  0.1282  -1.0093   0.0000   0.5487
  -7.400   0.7271   0.04710   0.04224  -0.2067  0.3650  0.1393  -1.0173   0.0000   0.5380
  -7.200   0.7561   0.04767   0.04279  -0.2080  0.3530  0.1521  -1.0351   0.0000   0.5281
  -7.000   0.7858   0.04828   0.04340  -0.2093  0.3444  0.1670  -1.0667   0.0000   0.5189
  -6.800   0.8153   0.04888   0.04399  -0.2106  0.3347  0.1827  -1.0984   0.0000   0.5103
  -6.600   0.8498   0.04969   0.04483  -0.2128  0.3280  0.2085  -1.1342   0.0000   0.5019
  -6.400   0.8889   0.05071   0.04587  -0.2158  0.3176  0.2466  -1.1753   0.0000   0.4937
  -6.000   0.9722   0.05301   0.04828  -0.2225  0.3055  0.3294  -1.2634   0.0000   0.4789
  -5.800   1.0076   0.05392   0.04921  -0.2248  0.2992  0.3611  -1.3044   0.0000   0.4727
  -5.600   1.0351   0.05452   0.04982  -0.2257  0.2954  0.3758  -1.3392   0.0000   0.4672
  -5.400   1.0643   0.05520   0.05050  -0.2269  0.2899  0.3939  -1.3756   0.0000   0.4619
  -5.200   1.0925   0.05582   0.05111  -0.2278  0.2842  0.4084  -1.4119   0.0000   0.4570
  -5.000   1.1159   0.05628   0.05157  -0.2280  0.2816  0.4158  -1.4454   0.0000   0.4524
  -4.800   1.1425   0.05689   0.05218  -0.2287  0.2787  0.4272  -1.4818   0.0000   0.4479
  -4.600   1.1706   0.05755   0.05284  -0.2296  0.2744  0.4407  -1.5199   0.0000   0.4436
  -4.400   1.1989   0.05822   0.05349  -0.2306  0.2687  0.4564  -1.5584   0.0000   0.4394
  -4.200   1.2232   0.05874   0.05401  -0.2309  0.2652  0.4670  -1.5935   0.0000   0.4355
  -4.000   1.2459   0.05920   0.05447  -0.2310  0.2625  0.4726  -1.6273   0.0000   0.4317
  -3.800   1.2682   0.05964   0.05488  -0.2309  0.2587  0.4769  -1.6609   0.0000   0.4281
  -3.600   1.2894   0.06001   0.05523  -0.2307  0.2545  0.4809  -1.6949   0.0000   0.4246
  -3.400   1.3097   0.06035   0.05555  -0.2303  0.2504  0.4842  -1.7284   0.0000   0.4213
  -3.200   1.3293   0.06069   0.05588  -0.2298  0.2487  0.4865  -1.7629   0.0000   0.4180
  -3.000   1.3509   0.06111   0.05630  -0.2296  0.2461  0.4906  -1.7997   0.0000   0.4148
  -2.800   1.3728   0.06155   0.05673  -0.2295  0.2425  0.4949  -1.8370   0.0000   0.4117
  -2.600   1.3935   0.06193   0.05708  -0.2292  0.2386  0.4985  -1.8737   0.0000   0.4086
  -2.400   1.4133   0.06227   0.05740  -0.2287  0.2348  0.5014  -1.9108   0.0000   0.4057
  -2.200   1.4328   0.06260   0.05773  -0.2282  0.2334  0.5038  -1.9477   0.0000   0.4028
  -2.000   1.4521   0.06293   0.05806  -0.2276  0.2315  0.5061  -1.9848   0.0000   0.4000
  -1.800   1.4744   0.06342   0.05854  -0.2276  0.2285  0.5108  -2.0252   0.0000   0.3973
  -1.600   1.4954   0.06385   0.05894  -0.2273  0.2241  0.5149  -2.0645   0.0000   0.3946
  -1.400   1.5150   0.06421   0.05928  -0.2268  0.2192  0.5183  -2.1023   0.0000   0.3920
  -1.200   1.5341   0.06455   0.05961  -0.2262  0.2173  0.5210  -2.1398   0.0000   0.3895
  -1.000   1.5527   0.06486   0.05991  -0.2255  0.2149  0.5231  -2.1769   0.0000   0.3870
  -0.800   1.5715   0.06520   0.06024  -0.2249  0.2123  0.5255  -2.2162   0.0000   0.3845
  -0.600   1.5920   0.06563   0.06066  -0.2245  0.2092  0.5295  -2.2594   0.0000   0.3821
  -0.400   1.6118   0.06605   0.06106  -0.2241  0.2054  0.5335  -2.3020   0.0000   0.3798
  -0.200   1.6310   0.06641   0.06142  -0.2235  0.2035  0.5371  -2.3440   0.0000   0.3775
   0.000   1.6494   0.06674   0.06175  -0.2228  0.2010  0.5399  -2.3854   0.0000   0.3752
   0.200   1.6671   0.06706   0.06205  -0.2220  0.1976  0.5420  -2.4261   0.0000   0.3730
   0.400   1.6850   0.06740   0.06237  -0.2212  0.1940  0.5442  -2.4672   0.0000   0.3708
   0.600   1.7045   0.06783   0.06279  -0.2207  0.1906  0.5477  -2.5104   0.0000   0.3687
   0.800   1.7237   0.06823   0.06320  -0.2201  0.1892  0.5511  -2.5571   0.0000   0.3666
   1.000   1.7423   0.06861   0.06358  -0.2194  0.1871  0.5546  -2.6035   0.0000   0.3645
   1.200   1.7601   0.06897   0.06392  -0.2187  0.1839  0.5576  -2.6491   0.0000   0.3625
   1.400   1.7770   0.06932   0.06425  -0.2177  0.1801  0.5600  -2.6937   0.0000   0.3604
   1.600   1.7939   0.06965   0.06456  -0.2168  0.1766  0.5618  -2.7383   0.0000   0.3584
   1.800   1.8127   0.07009   0.06501  -0.2162  0.1744  0.5652  -2.7875   0.0000   0.3565
   2.000   1.8310   0.07054   0.06544  -0.2155  0.1713  0.5685  -2.8367   0.0000   0.3546
   2.200   1.8482   0.07096   0.06585  -0.2146  0.1678  0.5718  -2.8846   0.0000   0.3527
   2.400   1.8649   0.07136   0.06623  -0.2137  0.1640  0.5749  -2.9345   0.0000   0.3508
   2.600   1.8815   0.07172   0.06660  -0.2127  0.1619  0.5775  -2.9860   0.0000   0.3490
   2.800   1.8973   0.07209   0.06696  -0.2116  0.1586  0.5794  -3.0365   0.0000   0.3471
   3.000   1.9127   0.07250   0.06733  -0.2105  0.1548  0.5812  -3.0865   0.0000   0.3453
   3.200   1.9294   0.07298   0.06780  -0.2096  0.1513  0.5844  -3.1399   0.0000   0.3435
   3.400   1.9462   0.07344   0.06827  -0.2087  0.1489  0.5878  -3.1971   0.0000   0.3417
   3.600   1.9617   0.07392   0.06874  -0.2076  0.1451  0.5909  -3.2533   0.0000   0.3400
   3.800   1.9756   0.07446   0.06926  -0.2063  0.1405  0.5935  -3.3082   0.0000   0.3382
   4.000   1.9896   0.07499   0.06978  -0.2050  0.1381  0.5957  -3.3654   0.0000   0.3364
   4.200   2.0029   0.07553   0.07032  -0.2036  0.1345  0.5975  -3.4241   0.0000   0.3347
   4.400   2.0151   0.07612   0.07087  -0.2021  0.1292  0.5990  -3.4811   0.0000   0.3329
   4.600   2.0296   0.07668   0.07143  -0.2009  0.1262  0.6019  -3.5428   0.0000   0.3312
   4.800   2.0439   0.07729   0.07203  -0.1997  0.1228  0.6049  -3.6129   0.0000   0.3296
   5.000   2.0571   0.07790   0.07263  -0.1983  0.1191  0.6075  -3.6819   0.0000   0.3279
   5.200   2.0711   0.07843   0.07316  -0.1971  0.1170  0.6098  -3.7528   0.0000   0.3263
   5.400   2.0845   0.07896   0.07369  -0.1957  0.1144  0.6119  -3.8230   0.0000   0.3246
   5.600   2.0960   0.07960   0.07431  -0.1942  0.1100  0.6137  -3.8916   0.0000   0.3230
   5.800   2.1080   0.08020   0.07490  -0.1927  0.1064  0.6155  -3.9620   0.0000   0.3213
   6.000   2.1195   0.08083   0.07551  -0.1912  0.1029  0.6171  -4.0319   0.0000   0.3197
   6.200   2.1290   0.08164   0.07631  -0.1894  0.0991  0.6186  -4.0984   0.0000   0.3181
   6.400   2.1397   0.08245   0.07713  -0.1878  0.0967  0.6214  -4.1727   0.0000   0.3165
   6.600   2.1493   0.08333   0.07800  -0.1861  0.0928  0.6237  -4.2463   0.0000   0.3148
   6.800   2.1587   0.08417   0.07883  -0.1844  0.0890  0.6257  -4.3229   0.0000   0.3132
   7.000   2.1687   0.08493   0.07959  -0.1828  0.0857  0.6278  -4.4014   0.0000   0.3117
   7.200   2.1774   0.08579   0.08043  -0.1810  0.0822  0.6299  -4.4772   0.0000   0.3101
   7.400   2.1877   0.08651   0.08116  -0.1795  0.0802  0.6320  -4.5574   0.0000   0.3086
   7.600   2.1956   0.08745   0.08211  -0.1777  0.0774  0.6337  -4.6324   0.0000   0.3070
   7.800   2.2009   0.08863   0.08327  -0.1756  0.0741  0.6351  -4.7034   0.0000   0.3054
   8.000   2.2089   0.08953   0.08419  -0.1739  0.0717  0.6362  -4.7833   0.0000   0.3039
   8.200   2.2152   0.09057   0.08522  -0.1720  0.0684  0.6374  -4.8600   0.0000   0.3023
   8.400   2.2229   0.09152   0.08618  -0.1703  0.0659  0.6394  -4.9432   0.0000   0.3008
   8.600   2.2287   0.09270   0.08737  -0.1685  0.0634  0.6415  -5.0220   0.0000   0.2993
   8.800   2.2324   0.09406   0.08873  -0.1665  0.0606  0.6435  -5.0952   0.0000   0.2978
   9.000   2.2394   0.09509   0.08977  -0.1649  0.0588  0.6456  -5.1781   0.0000   0.2963
   9.200   2.2447   0.09624   0.09094  -0.1631  0.0563  0.6475  -5.2614   0.0000   0.2949
   9.400   2.2476   0.09768   0.09238  -0.1612  0.0541  0.6491  -5.3378   0.0000   0.2934
   9.600   2.2522   0.09893   0.09365  -0.1595  0.0523  0.6506  -5.4196   0.0000   0.2920
   9.800   2.2558   0.10025   0.09498  -0.1578  0.0501  0.6519  -5.4983   0.0000   0.2906
  10.000   2.2581   0.10173   0.09649  -0.1560  0.0484  0.6531  -5.5736   0.0000   0.2892
  10.200   2.2613   0.10311   0.09788  -0.1543  0.0466  0.6542  -5.6519   0.0000   0.2878
  10.400   2.2620   0.10476   0.09954  -0.1526  0.0446  0.6551  -5.7222   0.0000   0.2865
  10.600   2.2641   0.10624   0.10105  -0.1511  0.0431  0.6567  -5.7972   0.0000   0.2852
  10.800   2.2654   0.10785   0.10269  -0.1496  0.0416  0.6585  -5.8693   0.0000   0.2839
  11.000   2.2655   0.10957   0.10444  -0.1481  0.0401  0.6601  -5.9377   0.0000   0.2827
  11.200   2.2662   0.11125   0.10615  -0.1468  0.0390  0.6615  -6.0079   0.0000   0.2815
  11.400   2.2673   0.11287   0.10782  -0.1455  0.0380  0.6629  -6.0794   0.0000   0.2803
  11.600   2.2678   0.11456   0.10953  -0.1444  0.0368  0.6643  -6.1487   0.0000   0.2792
  11.800   2.2658   0.11654   0.11154  -0.1433  0.0357  0.6655  -6.2094   0.0000   0.2781
  12.000   2.2658   0.11830   0.11334  -0.1423  0.0348  0.6669  -6.2766   0.0000   0.2771
  12.200   2.2662   0.12001   0.11510  -0.1414  0.0340  0.6684  -6.3455   0.0000   0.2761
  12.400   2.2645   0.12199   0.11711  -0.1407  0.0331  0.6697  -6.4064   0.0000   0.2752
  12.600   2.2622   0.12402   0.11918  -0.1401  0.0321  0.6708  -6.4649   0.0000   0.2743
  12.800   2.2605   0.12600   0.12119  -0.1395  0.0312  0.6718  -6.5248   0.0000   0.2735
  13.000   2.2586   0.12800   0.12325  -0.1391  0.0306  0.6726  -6.5841   0.0000   0.2727
  13.200   2.2566   0.13000   0.12529  -0.1388  0.0299  0.6733  -6.6425   0.0000   0.2719
  13.400   2.2541   0.13206   0.12738  -0.1387  0.0291  0.6739  -6.6988   0.0000   0.2712
  13.600   2.2489   0.13435   0.12973  -0.1386  0.0284  0.6750  -6.7440   0.0000   0.2707
  13.800   2.2444   0.13661   0.13204  -0.1388  0.0277  0.6763  -6.7908   0.0000   0.2701
  14.000   2.2417   0.13865   0.13413  -0.1389  0.0272  0.6776  -6.8449   0.0000   0.2696
  14.200   2.2386   0.14075   0.13627  -0.1391  0.0267  0.6788  -6.8965   0.0000   0.2691
  14.400   2.2335   0.14310   0.13868  -0.1397  0.0261  0.6800  -6.9395   0.0000   0.2687
  14.600   2.2278   0.14554   0.14118  -0.1403  0.0256  0.6812  -6.9787   0.0000   0.2684
  14.800   2.2216   0.14802   0.14371  -0.1411  0.0250  0.6824  -7.0178   0.0000   0.2682
  15.000   2.2167   0.15036   0.14610  -0.1420  0.0244  0.6836  -7.0630   0.0000   0.2680
  15.200   2.2112   0.15278   0.14858  -0.1430  0.0240  0.6848  -7.1050   0.0000   0.2678
  15.400   2.2051   0.15529   0.15115  -0.1441  0.0236  0.6858  -7.1432   0.0000   0.2677
  15.600   2.1989   0.15781   0.15372  -0.1454  0.0231  0.6868  -7.1801   0.0000   0.2677
  15.800   2.1923   0.16037   0.15633  -0.1468  0.0226  0.6877  -7.2146   0.0000   0.2677
  16.000   2.1836   0.16324   0.15926  -0.1485  0.0221  0.6884  -7.2375   0.0000   0.2679
  16.200   2.1747   0.16613   0.16221  -0.1504  0.0216  0.6891  -7.2585   0.0000   0.2682
  16.400   2.1685   0.16866   0.16480  -0.1520  0.0213  0.6898  -7.2919   0.0000   0.2684
  16.600   2.1629   0.17111   0.16729  -0.1536  0.0209  0.6905  -7.3275   0.0000   0.2685
  16.800   2.1546   0.17394   0.17019  -0.1557  0.0205  0.6911  -7.3483   0.0000   0.2688
  17.000   2.1466   0.17674   0.17305  -0.1578  0.0201  0.6917  -7.3694   0.0000   0.2692
  17.200   2.1394   0.17939   0.17574  -0.1598  0.0196  0.6923  -7.3944   0.0000   0.2696
  17.400   2.1290   0.18244   0.17885  -0.1623  0.0192  0.6934  -7.4007   0.0000   0.2702
  17.600   2.1203   0.18524   0.18171  -0.1646  0.0188  0.6945  -7.4155   0.0000   0.2707
  17.800   2.1143   0.18768   0.18420  -0.1666  0.0186  0.6957  -7.4435   0.0000   0.2710
  18.000   2.1063   0.19041   0.18700  -0.1690  0.0183  0.6967  -7.4597   0.0000   0.2715
  18.200   2.1005   0.19280   0.18943  -0.1710  0.0180  0.6977  -7.4875   0.0000   0.2718
  18.400   2.0917   0.19565   0.19235  -0.1736  0.0176  0.6986  -7.4970   0.0000   0.2725
  18.600   2.0857   0.19808   0.19481  -0.1758  0.0172  0.6995  -7.5222   0.0000   0.2729
  18.800   2.0763   0.20104   0.19783  -0.1787  0.0168  0.7003  -7.5287   0.0000   0.2737
  19.000   2.0700   0.20350   0.20033  -0.1810  0.0164  0.7011  -7.5534   0.0000   0.2742
  19.200   2.0641   0.20591   0.20279  -0.1833  0.0162  0.7020  -7.5797   0.0000   0.2747
  19.400   2.0578   0.20838   0.20531  -0.1858  0.0159  0.7029  -7.6026   0.0000   0.2752
  19.600   2.0542   0.21042   0.20738  -0.1878  0.0155  0.7039  -7.6422   0.0000   0.2754
  19.800   2.0456   0.21327   0.21028  -0.1908  0.0152  0.7048  -7.6478   0.0000   0.2763
  20.000   2.0414   0.21540   0.21245  -0.1930  0.0149  0.7058  -7.6817   0.0000   0.2766
  20.200   2.0352   0.21786   0.21495  -0.1956  0.0146  0.7066  -7.7027   0.0000   0.2773
  20.400   2.0283   0.22044   0.21757  -0.1984  0.0142  0.7074  -7.7180   0.0000   0.2780
  20.600   2.0258   0.22230   0.21946  -0.2004  0.0140  0.7082  -7.7631   0.0000   0.2782
  20.800   2.0200   0.22466   0.22187  -0.2030  0.0138  0.7088  -7.7851   0.0000   0.2788
  21.000   2.0158   0.22677   0.22402  -0.2054  0.0135  0.7093  -7.8171   0.0000   0.2792
  21.200   2.0132   0.22859   0.22587  -0.2074  0.0133  0.7098  -7.8603   0.0000   0.2794
  21.400   2.0073   0.23091   0.22824  -0.2101  0.0130  0.7104  -7.8787   0.0000   0.2801
  21.600   2.0019   0.23309   0.23045  -0.2127  0.0128  0.7114  -7.9009   0.0000   0.2806
  21.800   1.9987   0.23490   0.23228  -0.2147  0.0125  0.7124  -7.9389   0.0000   0.2809
  22.000   1.9928   0.23717   0.23460  -0.2175  0.0123  0.7132  -7.9547   0.0000   0.2815
  22.200   1.9875   0.23934   0.23682  -0.2202  0.0120  0.7141  -7.9742   0.0000   0.2822
  22.400   1.9857   0.24089   0.23839  -0.2220  0.0119  0.7150  -8.0215   0.0000   0.2822
  22.600   1.9835   0.24250   0.24003  -0.2239  0.0117  0.7159  -8.0649   0.0000   0.2823
  22.800   1.9764   0.24496   0.24255  -0.2271  0.0115  0.7166  -8.0670   0.0000   0.2833
  23.000   1.9740   0.24658   0.24419  -0.2291  0.0113  0.7175  -8.1080   0.0000   0.2835
  23.200   1.9716   0.24818   0.24582  -0.2312  0.0111  0.7184  -8.1487   0.0000   0.2836
  23.400   1.9649   0.25057   0.24825  -0.2343  0.0109  0.7193  -8.1509   0.0000   0.2845
  23.600   1.9611   0.25240   0.25011  -0.2367  0.0107  0.7202  -8.1783   0.0000   0.2849
  23.800   1.9584   0.25405   0.25178  -0.2389  0.0104  0.7212  -8.2139   0.0000   0.2852
  24.000   1.9554   0.25573   0.25350  -0.2412  0.0102  0.7221  -8.2469   0.0000   0.2855
  24.200   1.9496   0.25795   0.25576  -0.2442  0.0101  0.7229  -8.2520   0.0000   0.2863
  24.400   1.9478   0.25940   0.25724  -0.2462  0.0099  0.7237  -8.2944   0.0000   0.2864
  24.600   1.9459   0.26087   0.25873  -0.2482  0.0097  0.7244  -8.3357   0.0000   0.2865


