xflr5 v6.47

 Calculated polar for: NACA24018_theta30_Ku4.5_Kl0.5_d0.10_delta2.45

 1 1 Reynolds number fixed          Mach number fixed         

 xtrf =   1.000 (top)        1.000 (bottom)
 Mach =   0.000     Re =     2.600 e 6     Ncrit =   5.000

  alpha     CL        CD       CDp       Cm    Top Xtr Bot Xtr   Cpmin    Chinge    XCp    
 ------- -------- --------- --------- -------- ------- ------- -------- --------- ---------
 -15.000  -1.0562   0.02292   0.01831  -0.0872  0.9562  0.0235  -6.9125   0.0000   0.1444
 -14.800  -1.0367   0.02242   0.01779  -0.0876  0.9554  0.0239  -6.7686   0.0000   0.1428
 -14.600  -1.0152   0.02196   0.01733  -0.0883  0.9548  0.0242  -6.6183   0.0000   0.1405
 -14.200  -0.9902   0.02079   0.01614  -0.0862  0.9501  0.0248  -6.3846   0.0000   0.1411
 -14.000  -0.9718   0.02034   0.01567  -0.0862  0.9492  0.0250  -6.2479   0.0000   0.1397
 -13.800  -0.9520   0.01990   0.01522  -0.0864  0.9485  0.0253  -6.1077   0.0000   0.1379
 -13.600  -0.9334   0.01947   0.01478  -0.0864  0.9480  0.0257  -5.9731   0.0000   0.1363
 -13.400  -0.9145   0.01905   0.01435  -0.0864  0.9477  0.0262  -5.8385   0.0000   0.1346
 -13.200  -0.9297   0.01852   0.01380  -0.0801  0.9436  0.0263  -5.8196   0.0000   0.1436
 -13.000  -0.9153   0.01808   0.01336  -0.0791  0.9424  0.0267  -5.7008   0.0000   0.1436
 -12.800  -0.8952   0.01767   0.01295  -0.0792  0.9417  0.0271  -5.5638   0.0000   0.1417
 -12.600  -0.8736   0.01729   0.01256  -0.0795  0.9411  0.0276  -5.4231   0.0000   0.1394
 -12.400  -0.8510   0.01692   0.01220  -0.0800  0.9407  0.0280  -5.2804   0.0000   0.1366
 -12.200  -0.8277   0.01658   0.01185  -0.0805  0.9404  0.0283  -5.1372   0.0000   0.1334
 -12.000  -0.8295   0.01624   0.01150  -0.0763  0.9357  0.0285  -5.0746   0.0000   0.1391
 -11.800  -0.8087   0.01592   0.01117  -0.0763  0.9343  0.0288  -4.9459   0.0000   0.1369
 -11.400  -0.8025   0.01554   0.01078  -0.0697  0.9119  0.0295  -4.7988   0.0000   0.1451
 -11.200  -0.7782   0.01520   0.01046  -0.0703  0.9085  0.0302  -4.6622   0.0000   0.1417
 -11.000  -0.7517   0.01486   0.01012  -0.0713  0.9059  0.0309  -4.5208   0.0000   0.1373
 -10.800  -0.7237   0.01452   0.00978  -0.0725  0.9019  0.0315  -4.3765   0.0000   0.1319
 -10.600  -0.6922   0.01412   0.00939  -0.0744  0.8979  0.0321  -4.2241   0.0000   0.1246
 -10.400  -0.6551   0.01364   0.00889  -0.0773  0.8932  0.0325  -4.0580   0.0000   0.1138
 -10.200  -0.6063   0.01294   0.00816  -0.0825  0.8831  0.0337  -3.8634   0.0000   0.0952
 -10.000  -0.5522   0.01214   0.00724  -0.0889  0.8476  0.0350  -3.6598   0.0000   0.0696
  -9.800  -0.5361   0.01199   0.00693  -0.0878  0.8027  0.0357  -3.5623   0.0000   0.0669
  -9.600  -0.5198   0.01190   0.00672  -0.0868  0.7702  0.0362  -3.4654   0.0000   0.0638
  -9.400  -0.5005   0.01180   0.00654  -0.0863  0.7471  0.0367  -3.3618   0.0000   0.0582
  -9.200  -0.4797   0.01168   0.00636  -0.0862  0.7281  0.0377  -3.2560   0.0000   0.0509
  -9.000  -0.4581   0.01156   0.00619  -0.0862  0.7089  0.0387  -3.1492   0.0000   0.0423
  -8.800  -0.4358   0.01145   0.00603  -0.0862  0.6898  0.0397  -3.0421   0.0000   0.0323
  -8.600  -0.4131   0.01136   0.00587  -0.0864  0.6709  0.0405  -2.9382   0.0000   0.0207
  -8.400  -0.3899   0.01127   0.00573  -0.0867  0.6530  0.0412  -2.8360   0.0000   0.0072
  -8.200  -0.3661   0.01117   0.00558  -0.0871  0.6346  0.0425  -2.7340   0.0000  -0.0088
  -8.000  -0.3420   0.01108   0.00545  -0.0875  0.6183  0.0438  -2.6323   0.0000  -0.0275
  -7.800  -0.3176   0.01100   0.00533  -0.0880  0.6044  0.0450  -2.5313   0.0000  -0.0494
  -7.600  -0.2930   0.01093   0.00521  -0.0885  0.5890  0.0460  -2.4313   0.0000  -0.0752
  -7.400  -0.2679   0.01085   0.00509  -0.0891  0.5724  0.0478  -2.3316   0.0000  -0.1070
  -7.200  -0.2425   0.01077   0.00498  -0.0898  0.5562  0.0498  -2.2325   0.0000  -0.1460
  -7.000  -0.2172   0.01071   0.00488  -0.0904  0.5426  0.0513  -2.1350   0.0000  -0.1938
  -6.800  -0.1916   0.01065   0.00478  -0.0911  0.5293  0.0534  -2.0384   0.0000  -0.2553
  -6.600  -0.1662   0.01060   0.00469  -0.0918  0.5147  0.0553  -1.9437   0.0000  -0.3348
  -6.200  -0.1159   0.01052   0.00454  -0.0930  0.4851  0.0597  -1.7593   0.0000  -0.5945
  -6.000  -0.0907   0.01049   0.00448  -0.0936  0.4724  0.0621  -1.6768   0.0000  -0.8336
  -5.800  -0.0657   0.01047   0.00443  -0.0941  0.4590  0.0640  -1.5964   0.0000  -1.2503
  -5.600  -0.0403   0.01045   0.00437  -0.0948  0.4456  0.0671  -1.5165   0.0000  -2.2076
  -5.400  -0.0150   0.01044   0.00433  -0.0954  0.4327  0.0701  -1.4409   0.0000  -6.3523
  -5.200   0.0104   0.01042   0.00429  -0.0960  0.4222  0.0738  -1.3671   0.0000   9.8796
  -5.000   0.0358   0.01040   0.00425  -0.0966  0.4132  0.0775  -1.2942   0.0000   3.0487
  -4.800   0.0609   0.01040   0.00423  -0.0972  0.4025  0.0807  -1.2229   0.0000   1.8988
  -4.600   0.0865   0.01039   0.00420  -0.0979  0.3923  0.0852  -1.1520   0.0000   1.4161
  -4.400   0.1119   0.01039   0.00418  -0.0985  0.3819  0.0898  -1.0825   0.0000   1.1554
  -4.000   0.1634   0.01038   0.00416  -0.0999  0.3640  0.1025  -0.9517   0.0000   0.8755
  -3.800   0.1890   0.01040   0.00416  -0.1005  0.3548  0.1093  -0.8883   0.0000   0.7931
  -3.600   0.2155   0.01039   0.00416  -0.1014  0.3471  0.1201  -0.8249   0.0000   0.7293
  -3.400   0.2419   0.01039   0.00417  -0.1022  0.3387  0.1312  -0.8188   0.0000   0.6794
  -3.200   0.2686   0.01038   0.00419  -0.1031  0.3332  0.1433  -0.8463   0.0000   0.6392
  -3.000   0.2955   0.01039   0.00421  -0.1040  0.3269  0.1579  -0.8741   0.0000   0.6062
  -2.800   0.3241   0.01036   0.00424  -0.1053  0.3221  0.1810  -0.9032   0.0000   0.5780
  -2.600   0.3551   0.01031   0.00428  -0.1072  0.3165  0.2168  -0.9340   0.0000   0.5539
  -2.400   0.3904   0.01025   0.00434  -0.1100  0.3090  0.2712  -0.9679   0.0000   0.5330
  -2.200   0.4263   0.01019   0.00442  -0.1129  0.3044  0.3257  -1.0026   0.0000   0.5153
  -2.000   0.4609   0.01018   0.00451  -0.1155  0.2987  0.3710  -1.0379   0.0000   0.5005
  -1.800   0.4938   0.01019   0.00460  -0.1177  0.2931  0.4081  -1.0734   0.0000   0.4877
  -1.600   0.5254   0.01022   0.00470  -0.1196  0.2896  0.4376  -1.1089   0.0000   0.4765
  -1.400   0.5555   0.01026   0.00479  -0.1211  0.2859  0.4600  -1.1435   0.0000   0.4665
  -1.200   0.5843   0.01033   0.00488  -0.1224  0.2817  0.4780  -1.1773   0.0000   0.4576
  -1.000   0.6137   0.01039   0.00497  -0.1238  0.2782  0.4981  -1.2118   0.0000   0.4494
  -0.800   0.6430   0.01046   0.00507  -0.1252  0.2755  0.5178  -1.2465   0.0000   0.4420
  -0.600   0.6727   0.01054   0.00518  -0.1266  0.2715  0.5376  -1.2817   0.0000   0.4353
  -0.400   0.7007   0.01063   0.00528  -0.1278  0.2670  0.5526  -1.3167   0.0000   0.4290
  -0.200   0.7276   0.01073   0.00538  -0.1286  0.2636  0.5617  -1.3517   0.0000   0.4231
   0.000   0.7522   0.01081   0.00546  -0.1290  0.2616  0.5672  -1.3850   0.0000   0.4175
   0.200   0.7781   0.01090   0.00556  -0.1296  0.2588  0.5737  -1.4197   0.0000   0.4124
   0.400   0.8032   0.01101   0.00565  -0.1301  0.2550  0.5805  -1.4538   0.0000   0.4075
   0.600   0.8276   0.01113   0.00575  -0.1305  0.2505  0.5860  -1.4875   0.0000   0.4028
   0.800   0.8533   0.01122   0.00585  -0.1311  0.2480  0.5923  -1.5225   0.0000   0.3985
   1.000   0.8778   0.01133   0.00595  -0.1315  0.2452  0.5983  -1.5587   0.0000   0.3944
   1.200   0.9030   0.01144   0.00607  -0.1320  0.2418  0.6046  -1.5970   0.0000   0.3905
   1.400   0.9280   0.01157   0.00618  -0.1324  0.2383  0.6114  -1.6354   0.0000   0.3868
   1.600   0.9517   0.01169   0.00629  -0.1327  0.2354  0.6168  -1.6728   0.0000   0.3832
   1.800   0.9774   0.01180   0.00642  -0.1333  0.2337  0.6229  -1.7124   0.0000   0.3799
   2.000   1.0019   0.01192   0.00654  -0.1336  0.2314  0.6294  -1.7510   0.0000   0.3767
   2.200   1.0261   0.01206   0.00667  -0.1339  0.2283  0.6352  -1.7896   0.0000   0.3736
   2.400   1.0511   0.01221   0.00681  -0.1344  0.2244  0.6418  -1.8290   0.0000   0.3707
   2.600   1.0745   0.01235   0.00695  -0.1346  0.2212  0.6476  -1.8673   0.0000   0.3678
   2.800   1.0992   0.01249   0.00709  -0.1350  0.2189  0.6534  -1.9076   0.0000   0.3651
   3.000   1.1237   0.01264   0.00724  -0.1354  0.2160  0.6599  -1.9509   0.0000   0.3625
   3.200   1.1464   0.01279   0.00739  -0.1354  0.2130  0.6652  -1.9928   0.0000   0.3598
   3.400   1.1711   0.01297   0.00756  -0.1358  0.2097  0.6714  -2.0370   0.0000   0.3574
   3.600   1.1948   0.01312   0.00772  -0.1361  0.2077  0.6776  -2.0804   0.0000   0.3550
   3.800   1.2175   0.01327   0.00787  -0.1361  0.2059  0.6826  -2.1231   0.0000   0.3527
   4.000   1.2422   0.01345   0.00805  -0.1365  0.2027  0.6888  -2.1681   0.0000   0.3505
   4.200   1.2646   0.01365   0.00824  -0.1365  0.1985  0.6946  -2.2109   0.0000   0.3483
   4.400   1.2867   0.01385   0.00843  -0.1364  0.1949  0.6995  -2.2542   0.0000   0.3461
   4.600   1.3110   0.01402   0.00862  -0.1368  0.1932  0.7054  -2.3039   0.0000   0.3441
   4.800   1.3335   0.01420   0.00880  -0.1368  0.1911  0.7108  -2.3517   0.0000   0.3421
   5.000   1.3551   0.01439   0.00899  -0.1366  0.1886  0.7153  -2.3987   0.0000   0.3400
   5.200   1.3781   0.01463   0.00922  -0.1367  0.1852  0.7206  -2.4476   0.0000   0.3381
   5.400   1.3998   0.01484   0.00943  -0.1366  0.1820  0.7257  -2.4953   0.0000   0.3362
   5.600   1.4210   0.01503   0.00963  -0.1363  0.1799  0.7298  -2.5426   0.0000   0.3343
   5.800   1.4429   0.01525   0.00985  -0.1363  0.1769  0.7341  -2.5926   0.0000   0.3325
   6.000   1.4641   0.01552   0.01010  -0.1360  0.1731  0.7389  -2.6425   0.0000   0.3307
   6.200   1.4845   0.01576   0.01034  -0.1357  0.1696  0.7434  -2.6947   0.0000   0.3288
   6.400   1.5048   0.01597   0.01056  -0.1353  0.1677  0.7471  -2.7488   0.0000   0.3270
   6.600   1.5266   0.01621   0.01081  -0.1352  0.1655  0.7515  -2.8052   0.0000   0.3254
   6.800   1.5470   0.01649   0.01108  -0.1348  0.1624  0.7560  -2.8600   0.0000   0.3237
   7.000   1.5658   0.01679   0.01137  -0.1342  0.1582  0.7601  -2.9129   0.0000   0.3219
   7.200   1.5850   0.01704   0.01162  -0.1336  0.1560  0.7632  -2.9668   0.0000   0.3202
   7.400   1.6044   0.01733   0.01191  -0.1331  0.1531  0.7665  -3.0227   0.0000   0.3185
   7.600   1.6223   0.01767   0.01225  -0.1323  0.1494  0.7700  -3.0799   0.0000   0.3168
   7.800   1.6398   0.01802   0.01259  -0.1315  0.1455  0.7739  -3.1369   0.0000   0.3151
   8.000   1.6577   0.01833   0.01290  -0.1307  0.1426  0.7774  -3.1984   0.0000   0.3134
   8.200   1.6747   0.01869   0.01325  -0.1298  0.1390  0.7803  -3.2625   0.0000   0.3117
   8.400   1.6916   0.01908   0.01363  -0.1289  0.1351  0.7835  -3.3270   0.0000   0.3100
   8.600   1.7095   0.01940   0.01396  -0.1281  0.1331  0.7866  -3.3941   0.0000   0.3085
   8.800   1.7264   0.01975   0.01432  -0.1272  0.1303  0.7896  -3.4622   0.0000   0.3069
   9.000   1.7417   0.02019   0.01475  -0.1260  0.1267  0.7924  -3.5276   0.0000   0.3052
   9.200   1.7567   0.02063   0.01518  -0.1248  0.1235  0.7949  -3.5928   0.0000   0.3035
   9.400   1.7720   0.02104   0.01560  -0.1237  0.1206  0.7974  -3.6618   0.0000   0.3019
   9.600   1.7852   0.02157   0.01612  -0.1222  0.1162  0.8001  -3.7320   0.0000   0.3002
   9.800   1.7993   0.02206   0.01660  -0.1209  0.1126  0.8028  -3.8063   0.0000   0.2986
  10.000   1.8139   0.02252   0.01707  -0.1197  0.1097  0.8054  -3.8831   0.0000   0.2970
  10.200   1.8260   0.02310   0.01765  -0.1182  0.1063  0.8077  -3.9551   0.0000   0.2954
  10.400   1.8384   0.02368   0.01822  -0.1167  0.1032  0.8096  -4.0282   0.0000   0.2937
  10.600   1.8522   0.02420   0.01875  -0.1154  0.1008  0.8113  -4.1048   0.0000   0.2922
  10.800   1.8636   0.02482   0.01937  -0.1138  0.0975  0.8135  -4.1803   0.0000   0.2906
  11.000   1.8730   0.02554   0.02009  -0.1119  0.0940  0.8158  -4.2548   0.0000   0.2889
  11.200   1.8840   0.02617   0.02074  -0.1103  0.0913  0.8181  -4.3345   0.0000   0.2873
  11.400   1.8932   0.02694   0.02151  -0.1085  0.0879  0.8202  -4.4101   0.0000   0.2857
  11.600   1.9023   0.02774   0.02230  -0.1067  0.0850  0.8221  -4.4860   0.0000   0.2841
  11.800   1.9129   0.02847   0.02305  -0.1052  0.0826  0.8239  -4.5682   0.0000   0.2826
  12.000   1.9206   0.02942   0.02399  -0.1034  0.0795  0.8255  -4.6438   0.0000   0.2810
  12.200   1.9289   0.03036   0.02494  -0.1018  0.0768  0.8268  -4.7214   0.0000   0.2795
  12.400   1.9374   0.03122   0.02583  -0.1001  0.0748  0.8285  -4.7999   0.0000   0.2780
  12.600   1.9430   0.03226   0.02689  -0.0982  0.0724  0.8303  -4.8710   0.0000   0.2764
  12.800   1.9472   0.03343   0.02807  -0.0962  0.0697  0.8320  -4.9385   0.0000   0.2749
  13.000   1.9540   0.03446   0.02912  -0.0946  0.0679  0.8337  -5.0133   0.0000   0.2734
  13.200   1.9591   0.03566   0.03035  -0.0929  0.0657  0.8352  -5.0835   0.0000   0.2720
  13.400   1.9620   0.03709   0.03179  -0.0911  0.0633  0.8367  -5.1478   0.0000   0.2706
  13.600   1.9676   0.03837   0.03310  -0.0897  0.0617  0.8381  -5.2210   0.0000   0.2693
  13.800   1.9731   0.03972   0.03448  -0.0884  0.0601  0.8395  -5.2954   0.0000   0.2680
  14.000   1.9763   0.04132   0.03610  -0.0871  0.0581  0.8407  -5.3633   0.0000   0.2668
  14.200   1.9781   0.04310   0.03790  -0.0858  0.0561  0.8417  -5.4269   0.0000   0.2656
  14.400   1.9823   0.04472   0.03956  -0.0848  0.0547  0.8426  -5.4979   0.0000   0.2645
  14.600   1.9824   0.04649   0.04137  -0.0834  0.0531  0.8440  -5.5586   0.0000   0.2633
  14.800   1.9803   0.04855   0.04347  -0.0820  0.0514  0.8452  -5.6161   0.0000   0.2622
  15.000   1.9784   0.05065   0.04561  -0.0809  0.0499  0.8463  -5.6745   0.0000   0.2612
  15.200   1.9780   0.05269   0.04769  -0.0799  0.0487  0.8474  -5.7375   0.0000   0.2602
  15.400   1.9757   0.05498   0.05003  -0.0791  0.0474  0.8485  -5.7943   0.0000   0.2593
  15.600   1.9709   0.05764   0.05274  -0.0784  0.0459  0.8495  -5.8415   0.0000   0.2585
  15.800   1.9656   0.06044   0.05559  -0.0779  0.0446  0.8504  -5.8868   0.0000   0.2578
  16.000   1.9625   0.06308   0.05828  -0.0776  0.0436  0.8513  -5.9393   0.0000   0.2571
  16.200   1.9576   0.06599   0.06125  -0.0774  0.0425  0.8521  -5.9851   0.0000   0.2566
  16.400   1.9508   0.06922   0.06454  -0.0774  0.0414  0.8528  -6.0232   0.0000   0.2562
  16.600   1.9417   0.07281   0.06819  -0.0777  0.0403  0.8535  -6.0520   0.0000   0.2559
  16.800   1.9339   0.07632   0.07177  -0.0781  0.0395  0.8541  -6.0845   0.0000   0.2557
  17.000   1.9271   0.07976   0.07527  -0.0786  0.0389  0.8546  -6.1202   0.0000   0.2555
  17.200   1.9187   0.08342   0.07900  -0.0793  0.0382  0.8552  -6.1492   0.0000   0.2555
  17.400   1.9086   0.08735   0.08300  -0.0802  0.0375  0.8556  -6.1706   0.0000   0.2555
  17.600   1.8961   0.09169   0.08741  -0.0814  0.0368  0.8560  -6.1807   0.0000   0.2558
  17.800   1.8824   0.09622   0.09202  -0.0828  0.0361  0.8563  -6.1849   0.0000   0.2562
  18.000   1.8690   0.10075   0.09662  -0.0843  0.0353  0.8567  -6.1884   0.0000   0.2567
  18.200   1.8580   0.10495   0.10090  -0.0859  0.0349  0.8570  -6.2004   0.0000   0.2572
  18.400   1.8468   0.10921   0.10523  -0.0876  0.0343  0.8572  -6.2100   0.0000   0.2578
  18.600   1.8348   0.11356   0.10966  -0.0894  0.0338  0.8576  -6.2143   0.0000   0.2584
  18.800   1.8216   0.11792   0.11409  -0.0913  0.0332  0.8581  -6.2124   0.0000   0.2592
  19.000   1.8080   0.12233   0.11858  -0.0933  0.0326  0.8586  -6.2072   0.0000   0.2600
  19.200   1.7941   0.12682   0.12313  -0.0955  0.0320  0.8592  -6.1984   0.0000   0.2610
  19.400   1.7803   0.13129   0.12767  -0.0978  0.0315  0.8597  -6.1880   0.0000   0.2620
  19.600   1.7685   0.13548   0.13193  -0.1001  0.0310  0.8603  -6.1845   0.0000   0.2630
  19.800   1.7589   0.13933   0.13585  -0.1022  0.0306  0.8609  -6.1901   0.0000   0.2639
  20.000   1.7517   0.14282   0.13939  -0.1042  0.0301  0.8614  -6.2057   0.0000   0.2646
  20.200   1.7415   0.14683   0.14347  -0.1067  0.0296  0.8620  -6.2051   0.0000   0.2657
  20.400   1.7326   0.15065   0.14734  -0.1091  0.0291  0.8625  -6.2094   0.0000   0.2668
  20.600   1.7250   0.15428   0.15102  -0.1115  0.0285  0.8630  -6.2185   0.0000   0.2678
  20.800   1.7151   0.15834   0.15514  -0.1144  0.0280  0.8635  -6.2137   0.0000   0.2691
  21.000   1.7099   0.16162   0.15846  -0.1167  0.0274  0.8641  -6.2322   0.0000   0.2700
  21.200   1.7029   0.16523   0.16213  -0.1193  0.0270  0.8647  -6.2398   0.0000   0.2712
  21.400   1.7000   0.16819   0.16512  -0.1215  0.0266  0.8654  -6.2684   0.0000   0.2719
  21.600   1.6937   0.17176   0.16874  -0.1243  0.0261  0.8660  -6.2764   0.0000   0.2731
  21.800   1.6903   0.17483   0.17185  -0.1267  0.0256  0.8666  -6.3002   0.0000   0.2740
  22.000   1.6850   0.17827   0.17533  -0.1295  0.0251  0.8673  -6.3114   0.0000   0.2752
  22.200   1.6802   0.18164   0.17874  -0.1324  0.0245  0.8678  -6.3239   0.0000   0.2764
  22.400   1.6782   0.18454   0.18167  -0.1348  0.0240  0.8684  -6.3517   0.0000   0.2773
  22.600   1.6735   0.18794   0.18512  -0.1378  0.0237  0.8689  -6.3623   0.0000   0.2786
  22.800   1.6731   0.19060   0.18781  -0.1401  0.0233  0.8694  -6.3977   0.0000   0.2793
  23.000   1.6723   0.19333   0.19057  -0.1426  0.0229  0.8699  -6.4322   0.0000   0.2801
  23.200   1.6676   0.19679   0.19408  -0.1458  0.0224  0.8703  -6.4444   0.0000   0.2815
  23.400   1.6668   0.19955   0.19687  -0.1484  0.0220  0.8708  -6.4816   0.0000   0.2824
  23.600   1.6629   0.20288   0.20024  -0.1516  0.0215  0.8712  -6.4974   0.0000   0.2837
  23.800   1.6603   0.20599   0.20337  -0.1546  0.0210  0.8716  -6.5200   0.0000   0.2850
  24.000   1.6601   0.20815   0.20556  -0.1565  0.0207  0.8723  -6.5634   0.0000   0.2854
  24.200   1.6572   0.21080   0.20825  -0.1589  0.0204  0.8729  -6.5881   0.0000   0.2863
  24.400   1.6534   0.21363   0.21113  -0.1615  0.0200  0.8735  -6.6048   0.0000   0.2873
  24.600   1.6525   0.21596   0.21348  -0.1637  0.0195  0.8740  -6.6410   0.0000   0.2879
  24.800   1.6500   0.21858   0.21613  -0.1662  0.0191  0.8745  -6.6653   0.0000   0.2889
  25.000   1.6443   0.22181   0.21940  -0.1693  0.0186  0.8750  -6.6647   0.0000   0.2904


