xflr5 v6.47

 Calculated polar for: NACA24018_theta30_Ku4.5_Kl0.5_d0.07_delta1.57

 1 1 Reynolds number fixed          Mach number fixed         

 xtrf =   1.000 (top)        1.000 (bottom)
 Mach =   0.000     Re =     0.400 e 6     Ncrit =   5.000

  alpha     CL        CD       CDp       Cm    Top Xtr Bot Xtr   Cpmin    Chinge    XCp    
 ------- -------- --------- --------- -------- ------- ------- -------- --------- ---------
 -15.000  -1.0065   0.04021   0.03422  -0.0687  1.0000  0.0336  -6.4127   0.0000   0.1576
 -14.800  -1.0037   0.03894   0.03290  -0.0678  1.0000  0.0338  -6.3455   0.0000   0.1587
 -14.600  -1.0015   0.03770   0.03164  -0.0668  1.0000  0.0341  -6.2784   0.0000   0.1600
 -14.400  -0.9986   0.03657   0.03049  -0.0657  1.0000  0.0344  -6.2075   0.0000   0.1614
 -14.200  -0.9954   0.03554   0.02944  -0.0645  1.0000  0.0347  -6.1344   0.0000   0.1629
 -14.000  -0.9919   0.03458   0.02845  -0.0631  1.0000  0.0350  -6.0600   0.0000   0.1644
 -13.800  -0.9883   0.03368   0.02753  -0.0617  1.0000  0.0353  -5.9855   0.0000   0.1661
 -13.600  -0.9846   0.03284   0.02666  -0.0601  1.0000  0.0357  -5.9105   0.0000   0.1678
 -13.400  -0.9731   0.03217   0.02594  -0.0599  0.9993  0.0361  -5.8099   0.0000   0.1675
 -13.200  -0.9571   0.03167   0.02539  -0.0605  0.9981  0.0366  -5.6949   0.0000   0.1661
 -13.000  -0.9431   0.03105   0.02473  -0.0606  0.9967  0.0370  -5.5873   0.0000   0.1654
 -12.800  -0.9223   0.03061   0.02423  -0.0618  0.9948  0.0376  -5.4588   0.0000   0.1628
 -12.600  -0.9011   0.02999   0.02355  -0.0629  0.9918  0.0382  -5.3300   0.0000   0.1602
 -12.400  -0.8824   0.02933   0.02285  -0.0636  0.9889  0.0387  -5.2095   0.0000   0.1581
 -12.200  -0.8645   0.02872   0.02223  -0.0643  0.9868  0.0392  -5.0909   0.0000   0.1560
 -12.000  -0.8488   0.02801   0.02151  -0.0642  0.9835  0.0398  -4.9786   0.0000   0.1549
 -11.800  -0.8292   0.02754   0.02102  -0.0648  0.9819  0.0405  -4.8547   0.0000   0.1525
 -11.600  -0.8145   0.02685   0.02030  -0.0644  0.9782  0.0412  -4.7485   0.0000   0.1519
 -11.400  -0.7964   0.02630   0.01972  -0.0646  0.9759  0.0420  -4.6369   0.0000   0.1501
 -11.200  -0.7806   0.02567   0.01906  -0.0642  0.9725  0.0427  -4.5334   0.0000   0.1491
 -11.000  -0.7642   0.02508   0.01842  -0.0639  0.9695  0.0434  -4.4293   0.0000   0.1480
 -10.800  -0.7488   0.02445   0.01776  -0.0634  0.9659  0.0440  -4.3289   0.0000   0.1471
 -10.600  -0.7382   0.02370   0.01702  -0.0621  0.9607  0.0447  -4.2415   0.0000   0.1480
 -10.400  -0.7279   0.02303   0.01634  -0.0605  0.9548  0.0453  -4.1546   0.0000   0.1492
 -10.200  -0.7171   0.02243   0.01573  -0.0590  0.9485  0.0460  -4.0666   0.0000   0.1504
 -10.000  -0.7030   0.02190   0.01518  -0.0580  0.9434  0.0469  -3.9746   0.0000   0.1504
  -9.800  -0.6902   0.02141   0.01467  -0.0567  0.9378  0.0478  -3.8869   0.0000   0.1511
  -9.600  -0.6726   0.02094   0.01416  -0.0562  0.9342  0.0488  -3.7879   0.0000   0.1498
  -9.400  -0.6588   0.02051   0.01368  -0.0549  0.9288  0.0497  -3.6996   0.0000   0.1501
  -9.200  -0.6439   0.01996   0.01315  -0.0540  0.9243  0.0507  -3.6089   0.0000   0.1499
  -9.000  -0.6272   0.01947   0.01267  -0.0533  0.9198  0.0517  -3.5133   0.0000   0.1489
  -8.800  -0.6108   0.01904   0.01223  -0.0524  0.9141  0.0528  -3.4195   0.0000   0.1482
  -8.600  -0.5893   0.01858   0.01175  -0.0525  0.9109  0.0541  -3.3140   0.0000   0.1450
  -8.400  -0.5733   0.01821   0.01135  -0.0515  0.9035  0.0554  -3.2232   0.0000   0.1444
  -8.200  -0.5506   0.01776   0.01088  -0.0517  0.8995  0.0568  -3.1175   0.0000   0.1402
  -8.000  -0.5314   0.01732   0.01045  -0.0513  0.8928  0.0583  -3.0203   0.0000   0.1376
  -7.800  -0.5072   0.01687   0.01000  -0.0519  0.8874  0.0601  -2.9122   0.0000   0.1319
  -7.600  -0.4823   0.01646   0.00957  -0.0525  0.8808  0.0620  -2.8045   0.0000   0.1253
  -7.400  -0.4535   0.01603   0.00910  -0.0538  0.8733  0.0638  -2.6896   0.0000   0.1152
  -7.200  -0.4245   0.01554   0.00861  -0.0553  0.8640  0.0662  -2.5803   0.0000   0.1033
  -7.000  -0.3891   0.01507   0.00813  -0.0579  0.8551  0.0692  -2.4591   0.0000   0.0840
  -6.800  -0.3552   0.01470   0.00770  -0.0603  0.8442  0.0720  -2.3436   0.0000   0.0626
  -6.600  -0.3234   0.01430   0.00730  -0.0623  0.8320  0.0752  -2.2337   0.0000   0.0387
  -6.400  -0.2899   0.01397   0.00693  -0.0646  0.8186  0.0790  -2.1223   0.0000   0.0074
  -6.200  -0.2587   0.01369   0.00659  -0.0665  0.8031  0.0828  -2.0222   0.0000  -0.0281
  -6.000  -0.2308   0.01345   0.00630  -0.0677  0.7858  0.0872  -1.9294   0.0000  -0.0656
  -5.800  -0.2055   0.01329   0.00605  -0.0683  0.7684  0.0915  -1.8428   0.0000  -0.1063
  -5.600  -0.1841   0.01310   0.00583  -0.0683  0.7507  0.0964  -1.7640   0.0000  -0.1460
  -5.400  -0.1637   0.01297   0.00564  -0.0679  0.7334  0.1016  -1.6882   0.0000  -0.1920
  -5.200  -0.1445   0.01283   0.00546  -0.0674  0.7164  0.1071  -1.6192   0.0000  -0.2451
  -5.000  -0.1259   0.01274   0.00530  -0.0667  0.6991  0.1133  -1.5519   0.0000  -0.3108
  -4.800  -0.1082   0.01262   0.00514  -0.0658  0.6820  0.1207  -1.4867   0.0000  -0.3929
  -4.400  -0.0729   0.01242   0.00487  -0.0641  0.6494  0.1395  -1.3589   0.0000  -0.6733
  -4.200  -0.0554   0.01230   0.00474  -0.0632  0.6336  0.1522  -1.2963   0.0000  -0.9452
  -4.000  -0.0380   0.01217   0.00461  -0.0623  0.6176  0.1693  -1.2365   0.0000  -1.4675
  -3.800  -0.0204   0.01199   0.00448  -0.0616  0.6020  0.1943  -1.1788   0.0000  -2.8984
  -3.600  -0.0025   0.01172   0.00432  -0.0610  0.5871  0.2367  -1.1214   0.0000  -25.3843
  -3.400   0.0169   0.01127   0.00414  -0.0610  0.5727  0.3179  -1.0628   0.0000   3.9935
  -3.200   0.0382   0.01100   0.00405  -0.0611  0.5578  0.3830  -1.0031   0.0000   1.9037
  -3.000   0.0600   0.01088   0.00400  -0.0612  0.5427  0.4232  -0.9453   0.0000   1.3001
  -2.800   0.0821   0.01082   0.00398  -0.0613  0.5281  0.4540  -0.8886   0.0000   1.0158
  -2.600   0.1047   0.01078   0.00398  -0.0614  0.5142  0.4813  -0.8344   0.0000   0.8497
  -2.400   0.1279   0.01076   0.00398  -0.0617  0.5010  0.5084  -0.7884   0.0000   0.7412
  -2.000   0.1742   0.01080   0.00404  -0.0621  0.4742  0.5524  -0.8368   0.0000   0.6104
  -1.800   0.1975   0.01084   0.00407  -0.0623  0.4614  0.5716  -0.8622   0.0000   0.5679
  -1.600   0.2209   0.01089   0.00412  -0.0625  0.4495  0.5898  -0.8878   0.0000   0.5342
  -1.400   0.2440   0.01095   0.00418  -0.0626  0.4383  0.6061  -0.9133   0.0000   0.5069
  -1.200   0.2670   0.01103   0.00425  -0.0628  0.4272  0.6227  -0.9388   0.0000   0.4844
  -1.000   0.2903   0.01111   0.00433  -0.0630  0.4163  0.6408  -0.9651   0.0000   0.4654
  -0.800   0.3136   0.01119   0.00442  -0.0631  0.4065  0.6577  -0.9924   0.0000   0.4491
  -0.600   0.3358   0.01129   0.00450  -0.0630  0.3980  0.6708  -1.0190   0.0000   0.4351
  -0.400   0.3580   0.01138   0.00458  -0.0630  0.3897  0.6803  -1.0465   0.0000   0.4227
  -0.200   0.3794   0.01149   0.00466  -0.0628  0.3820  0.6885  -1.0741   0.0000   0.4118
   0.000   0.4006   0.01160   0.00475  -0.0625  0.3741  0.6962  -1.1018   0.0000   0.4019
   0.200   0.4220   0.01171   0.00484  -0.0623  0.3670  0.7045  -1.1297   0.0000   0.3931
   0.400   0.4427   0.01183   0.00494  -0.0619  0.3600  0.7121  -1.1571   0.0000   0.3850
   0.600   0.4639   0.01195   0.00504  -0.0617  0.3541  0.7203  -1.1851   0.0000   0.3777
   0.800   0.4839   0.01206   0.00515  -0.0611  0.3483  0.7277  -1.2124   0.0000   0.3708
   1.000   0.5047   0.01221   0.00526  -0.0608  0.3426  0.7357  -1.2403   0.0000   0.3647
   1.200   0.5237   0.01232   0.00539  -0.0601  0.3374  0.7430  -1.2670   0.0000   0.3586
   1.400   0.5447   0.01245   0.00550  -0.0598  0.3320  0.7509  -1.2969   0.0000   0.3534
   1.600   0.5615   0.01260   0.00565  -0.0587  0.3276  0.7579  -1.3234   0.0000   0.3478
   1.800   0.5824   0.01272   0.00577  -0.0584  0.3231  0.7653  -1.3534   0.0000   0.3432
   2.000   0.5988   0.01286   0.00591  -0.0571  0.3187  0.7720  -1.3798   0.0000   0.3381
   2.200   0.6174   0.01302   0.00606  -0.0564  0.3143  0.7791  -1.4082   0.0000   0.3338
   2.400   0.6336   0.01316   0.00621  -0.0551  0.3107  0.7855  -1.4349   0.0000   0.3292
   2.600   0.6513   0.01330   0.00636  -0.0541  0.3070  0.7923  -1.4641   0.0000   0.3251
   2.800   0.6682   0.01345   0.00652  -0.0531  0.3034  0.7986  -1.4929   0.0000   0.3211
   3.000   0.6821   0.01363   0.00669  -0.0514  0.3002  0.8047  -1.5191   0.0000   0.3167
   3.200   0.7024   0.01379   0.00685  -0.0510  0.2969  0.8111  -1.5510   0.0000   0.3138
   3.400   0.7128   0.01393   0.00702  -0.0485  0.2938  0.8166  -1.5747   0.0000   0.3090
   3.600   0.7296   0.01410   0.00720  -0.0475  0.2902  0.8227  -1.6054   0.0000   0.3057
   3.800   0.7432   0.01429   0.00738  -0.0457  0.2870  0.8279  -1.6331   0.0000   0.3020
   4.000   0.7529   0.01449   0.00758  -0.0433  0.2843  0.8330  -1.6574   0.0000   0.2976
   4.200   0.7729   0.01465   0.00776  -0.0429  0.2814  0.8385  -1.6914   0.0000   0.2953
   4.400   0.7831   0.01482   0.00795  -0.0405  0.2786  0.8429  -1.7177   0.0000   0.2913
   4.600   0.7930   0.01501   0.00816  -0.0380  0.2756  0.8476  -1.7439   0.0000   0.2873
   4.800   0.8112   0.01524   0.00837  -0.0374  0.2724  0.8525  -1.7781   0.0000   0.2852
   5.000   0.8222   0.01545   0.00859  -0.0352  0.2698  0.8566  -1.8054   0.0000   0.2817
   5.200   0.8303   0.01563   0.00880  -0.0324  0.2675  0.8605  -1.8299   0.0000   0.2776
   5.400   0.8454   0.01584   0.00903  -0.0312  0.2646  0.8649  -1.8614   0.0000   0.2752
   5.600   0.8666   0.01608   0.00926  -0.0312  0.2614  0.8691  -1.8990   0.0000   0.2740
   5.800   0.8687   0.01631   0.00950  -0.0273  0.2591  0.8722  -1.9177   0.0000   0.2692
   6.000   0.8769   0.01657   0.00977  -0.0247  0.2566  0.8758  -1.9430   0.0000   0.2657
   6.200   0.8940   0.01679   0.01001  -0.0239  0.2540  0.8796  -1.9787   0.0000   0.2639
   6.400   0.9138   0.01703   0.01027  -0.0237  0.2512  0.8832  -2.0175   0.0000   0.2629
   6.600   0.9152   0.01727   0.01054  -0.0197  0.2490  0.8861  -2.0367   0.0000   0.2582
   6.800   0.9224   0.01754   0.01082  -0.0171  0.2465  0.8893  -2.0620   0.0000   0.2549
   7.000   0.9358   0.01786   0.01113  -0.0157  0.2438  0.8927  -2.0947   0.0000   0.2529
   7.200   0.9585   0.01815   0.01143  -0.0162  0.2410  0.8958  -2.1393   0.0000   0.2528
   7.400   0.9612   0.01839   0.01171  -0.0127  0.2390  0.8985  -2.1614   0.0000   0.2487
   7.600   0.9660   0.01865   0.01201  -0.0096  0.2369  0.9016  -2.1866   0.0000   0.2452
   7.800   0.9775   0.01897   0.01234  -0.0080  0.2345  0.9048  -2.2206   0.0000   0.2431
   8.000   0.9949   0.01934   0.01271  -0.0076  0.2318  0.9077  -2.2617   0.0000   0.2423
   8.200   1.0033   0.01971   0.01307  -0.0055  0.2295  0.9104  -2.2920   0.0000   0.2399
   8.400   1.0069   0.01996   0.01338  -0.0023  0.2275  0.9134  -2.3167   0.0000   0.2364
   8.600   1.0175   0.02028   0.01373  -0.0006  0.2250  0.9163  -2.3502   0.0000   0.2344
   8.800   1.0328   0.02065   0.01413   0.0001  0.2223  0.9188  -2.3913   0.0000   0.2334
   9.000   1.0518   0.02111   0.01458  -0.0001  0.2195  0.9209  -2.4378   0.0000   0.2333
   9.200   1.0493   0.02146   0.01495   0.0039  0.2176  0.9238  -2.4579   0.0000   0.2291
   9.400   1.0560   0.02185   0.01537   0.0061  0.2155  0.9268  -2.4900   0.0000   0.2267
   9.600   1.0697   0.02224   0.01580   0.0070  0.2130  0.9292  -2.5317   0.0000   0.2257
   9.800   1.0863   0.02270   0.01630   0.0072  0.2101  0.9312  -2.5774   0.0000   0.2253
  10.000   1.0928   0.02314   0.01676   0.0093  0.2077  0.9335  -2.6094   0.0000   0.2231
  10.200   1.0961   0.02361   0.01724   0.0119  0.2055  0.9362  -2.6370   0.0000   0.2204
  10.400   1.1046   0.02418   0.01781   0.0133  0.2033  0.9385  -2.6735   0.0000   0.2189
  10.600   1.1195   0.02465   0.01835   0.0137  0.2010  0.9403  -2.7221   0.0000   0.2184
  10.800   1.1355   0.02522   0.01896   0.0138  0.1982  0.9417  -2.7725   0.0000   0.2181
  11.000   1.1374   0.02569   0.01946   0.0164  0.1960  0.9440  -2.8016   0.0000   0.2155
  11.200   1.1425   0.02628   0.02006   0.0183  0.1936  0.9464  -2.8354   0.0000   0.2136
  11.400   1.1506   0.02701   0.02080   0.0193  0.1912  0.9482  -2.8753   0.0000   0.2124
  11.600   1.1637   0.02766   0.02150   0.0197  0.1889  0.9497  -2.9265   0.0000   0.2119
  11.800   1.1764   0.02833   0.02222   0.0201  0.1862  0.9510  -2.9771   0.0000   0.2114
  12.000   1.1772   0.02890   0.02283   0.0225  0.1841  0.9532  -3.0079   0.0000   0.2090
  12.200   1.1827   0.02963   0.02359   0.0239  0.1818  0.9551  -3.0463   0.0000   0.2076
  12.400   1.1897   0.03052   0.02450   0.0247  0.1794  0.9566  -3.0869   0.0000   0.2066
  12.600   1.1992   0.03142   0.02543   0.0252  0.1771  0.9578  -3.1336   0.0000   0.2060
  12.800   1.2113   0.03226   0.02633   0.0252  0.1743  0.9587  -3.1887   0.0000   0.2057
  13.000   1.2117   0.03302   0.02714   0.0273  0.1720  0.9607  -3.2238   0.0000   0.2037
  13.200   1.2154   0.03398   0.02813   0.0284  0.1695  0.9622  -3.2648   0.0000   0.2024
  13.400   1.2199   0.03512   0.02929   0.0291  0.1671  0.9634  -3.3070   0.0000   0.2016
  13.600   1.2262   0.03624   0.03044   0.0295  0.1649  0.9645  -3.3527   0.0000   0.2009
  13.800   1.2350   0.03728   0.03156   0.0297  0.1625  0.9654  -3.4047   0.0000   0.2005
  14.000   1.2427   0.03851   0.03284   0.0297  0.1597  0.9662  -3.4569   0.0000   0.2003
  14.200   1.2438   0.03977   0.03413   0.0305  0.1572  0.9672  -3.4958   0.0000   0.1991
  14.400   1.2434   0.04120   0.03558   0.0313  0.1548  0.9683  -3.5308   0.0000   0.1980
  14.600   1.2457   0.04254   0.03697   0.0319  0.1526  0.9695  -3.5717   0.0000   0.1972
  14.800   1.2506   0.04384   0.03834   0.0321  0.1502  0.9705  -3.6185   0.0000   0.1967
  15.000   1.2544   0.04537   0.03992   0.0321  0.1477  0.9711  -3.6639   0.0000   0.1963
  15.200   1.2566   0.04713   0.04173   0.0319  0.1452  0.9716  -3.7051   0.0000   0.1961
  15.400   1.2567   0.04914   0.04376   0.0316  0.1427  0.9721  -3.7404   0.0000   0.1958
  15.600   1.2599   0.05091   0.04560   0.0312  0.1403  0.9725  -3.7839   0.0000   0.1957
  15.800   1.2628   0.05276   0.04751   0.0307  0.1376  0.9729  -3.8262   0.0000   0.1956
  16.000   1.2620   0.05483   0.04963   0.0304  0.1349  0.9735  -3.8585   0.0000   0.1954
  16.200   1.2570   0.05703   0.05187   0.0304  0.1326  0.9743  -3.8797   0.0000   0.1948
  16.400   1.2522   0.05947   0.05435   0.0300  0.1304  0.9749  -3.9013   0.0000   0.1945
  16.600   1.2532   0.06148   0.05644   0.0295  0.1282  0.9753  -3.9398   0.0000   0.1944
  16.800   1.2520   0.06378   0.05881   0.0288  0.1257  0.9756  -3.9729   0.0000   0.1944
  17.000   1.2484   0.06641   0.06149   0.0279  0.1233  0.9758  -3.9977   0.0000   0.1945
  17.200   1.2424   0.06933   0.06446   0.0269  0.1210  0.9760  -4.0146   0.0000   0.1947
  17.400   1.2371   0.07219   0.06736   0.0258  0.1189  0.9763  -4.0327   0.0000   0.1949
  17.600   1.2351   0.07466   0.06992   0.0249  0.1167  0.9766  -4.0613   0.0000   0.1951
  17.800   1.2308   0.07746   0.07277   0.0238  0.1143  0.9770  -4.0820   0.0000   0.1954
  18.000   1.2242   0.08060   0.07596   0.0225  0.1119  0.9773  -4.0950   0.0000   0.1958
  18.200   1.2156   0.08400   0.07941   0.0210  0.1097  0.9775  -4.1008   0.0000   0.1963
  18.400   1.2105   0.08707   0.08253   0.0196  0.1076  0.9776  -4.1171   0.0000   0.1969
  18.600   1.2067   0.09003   0.08557   0.0181  0.1053  0.9777  -4.1374   0.0000   0.1975
  18.800   1.2011   0.09325   0.08884   0.0165  0.1029  0.9778  -4.1506   0.0000   0.1982
  19.000   1.1939   0.09670   0.09234   0.0147  0.1006  0.9778  -4.1567   0.0000   0.1991
  19.200   1.1856   0.10030   0.09597   0.0128  0.0985  0.9778  -4.1579   0.0000   0.2001
  19.400   1.1827   0.10323   0.09898   0.0111  0.0964  0.9778  -4.1783   0.0000   0.2009
  19.600   1.1786   0.10635   0.10216   0.0093  0.0941  0.9779  -4.1933   0.0000   0.2018
  19.800   1.1725   0.10977   0.10562   0.0073  0.0919  0.9779  -4.1994   0.0000   0.2029
  20.000   1.1661   0.11323   0.10910   0.0053  0.0897  0.9779  -4.2037   0.0000   0.2041
  20.200   1.1624   0.11631   0.11222   0.0033  0.0878  0.9780  -4.2177   0.0000   0.2052
  20.400   1.1595   0.11934   0.11532   0.0014  0.0857  0.9780  -4.2332   0.0000   0.2063
  20.600   1.1557   0.12248   0.11851  -0.0006  0.0836  0.9781  -4.2450   0.0000   0.2075
  20.800   1.1508   0.12578   0.12183  -0.0028  0.0815  0.9782  -4.2521   0.0000   0.2088
  21.000   1.1467   0.12892   0.12498  -0.0049  0.0795  0.9783  -4.2635   0.0000   0.2101
  21.200   1.1455   0.13172   0.12784  -0.0068  0.0777  0.9785  -4.2869   0.0000   0.2112
  21.400   1.1432   0.13466   0.13084  -0.0089  0.0757  0.9787  -4.3052   0.0000   0.2124
  21.600   1.1405   0.13770   0.13391  -0.0111  0.0737  0.9789  -4.3203   0.0000   0.2138
  21.800   1.1372   0.14082   0.13704  -0.0134  0.0718  0.9790  -4.3322   0.0000   0.2153
  22.000   1.1364   0.14356   0.13982  -0.0155  0.0701  0.9791  -4.3549   0.0000   0.2165
  22.200   1.1351   0.14646   0.14278  -0.0178  0.0683  0.9792  -4.3734   0.0000   0.2180
  22.400   1.1339   0.14934   0.14569  -0.0201  0.0664  0.9792  -4.3919   0.0000   0.2194
  22.600   1.1325   0.15226   0.14863  -0.0224  0.0645  0.9793  -4.4087   0.0000   0.2209
  22.800   1.1312   0.15514   0.15151  -0.0248  0.0629  0.9793  -4.4256   0.0000   0.2225
  23.000   1.1318   0.15779   0.15422  -0.0271  0.0614  0.9794  -4.4503   0.0000   0.2238
  23.200   1.1315   0.16058   0.15706  -0.0294  0.0597  0.9794  -4.4711   0.0000   0.2253
  23.400   1.1308   0.16340   0.15991  -0.0319  0.0580  0.9794  -4.4907   0.0000   0.2269
  23.600   1.1311   0.16608   0.16259  -0.0342  0.0565  0.9795  -4.5163   0.0000   0.2284
  23.800   1.1319   0.16867   0.16519  -0.0366  0.0551  0.9795  -4.5439   0.0000   0.2298
  24.000   1.1317   0.17145   0.16803  -0.0391  0.0537  0.9796  -4.5638   0.0000   0.2314
  24.200   1.1323   0.17408   0.17072  -0.0415  0.0522  0.9796  -4.5880   0.0000   0.2329
  24.400   1.1330   0.17669   0.17334  -0.0439  0.0508  0.9797  -4.6130   0.0000   0.2344
  24.600   1.1334   0.17933   0.17598  -0.0464  0.0495  0.9797  -4.6359   0.0000   0.2359
  24.800   1.1352   0.18176   0.17843  -0.0488  0.0483  0.9798  -4.6655   0.0000   0.2373
  25.000   1.1356   0.18431   0.18104  -0.0512  0.0471  0.9799  -4.6866   0.0000   0.2387


