xflr5 v6.47

 Calculated polar for: NACA24018_theta30_Ku4.5_Kl0.5_d0.31_delta11.03

 1 1 Reynolds number fixed          Mach number fixed         

 xtrf =   1.000 (top)        1.000 (bottom)
 Mach =   0.000     Re =     0.800 e 6     Ncrit =   5.000

  alpha     CL        CD       CDp       Cm    Top Xtr Bot Xtr   Cpmin    Chinge    XCp    
 ------- -------- --------- --------- -------- ------- ------- -------- --------- ---------
 -14.600  -0.3692   0.05468   0.05041  -0.1274  0.8136  0.0476  -4.0404   0.0000  -0.1354
 -14.400  -0.3391   0.05480   0.05051  -0.1294  0.8125  0.0484  -3.8952   0.0000  -0.1740
 -14.200  -0.3069   0.05496   0.05067  -0.1317  0.8117  0.0493  -3.7459   0.0000  -0.2243
 -14.000  -0.2734   0.05517   0.05088  -0.1343  0.8110  0.0504  -3.5938   0.0000  -0.2899
 -13.800  -0.2409   0.05538   0.05110  -0.1365  0.8104  0.0517  -3.4459   0.0000  -0.3701
 -13.600  -0.2085   0.05560   0.05132  -0.1386  0.8099  0.0530  -3.3006   0.0000  -0.4743
 -13.400  -0.1752   0.05586   0.05157  -0.1408  0.8095  0.0543  -3.1614   0.0000  -0.6220
 -13.200  -0.1470   0.05594   0.05166  -0.1424  0.8046  0.0555  -3.0378   0.0000  -0.7976
 -13.000  -0.1147   0.05615   0.05188  -0.1445  0.8029  0.0570  -2.9100   0.0000  -1.1069
 -12.800  -0.0815   0.05634   0.05207  -0.1466  0.8017  0.0586  -2.7827   0.0000  -1.6802
 -12.600  -0.0460   0.05652   0.05225  -0.1490  0.8008  0.0602  -2.6519   0.0000  -3.2082
 -12.400  -0.0090   0.05668   0.05242  -0.1516  0.8001  0.0624  -2.5187   0.0000  -17.6077
 -12.200   0.0270   0.05681   0.05255  -0.1540  0.7995  0.0646  -2.3904   0.0000   6.3068
 -12.000   0.0532   0.05707   0.05283  -0.1552  0.7953  0.0663  -2.2866   0.0000   3.3313
 -11.800   0.0886   0.05714   0.05291  -0.1575  0.7927  0.0688  -2.1636   0.0000   2.1237
  -8.800   0.5062   0.06703   0.06324  -0.1760  0.7298  0.1375  -0.8660   0.0000   0.6031
  -8.600   0.5489   0.06719   0.06343  -0.1791  0.7198  0.1512  -0.8261   0.0000   0.5804
  -8.400   0.6054   0.06689   0.06317  -0.1840  0.7115  0.1732  -0.8761   0.0000   0.5570
  -8.200   0.6950   0.06584   0.06215  -0.1937  0.6988  0.2185  -0.9541   0.0000   0.5307
  -8.000   0.8706   0.06509   0.06118  -0.2169  0.6343  0.3504  -1.1109   0.0000   0.5002
  -7.800   0.8926   0.06710   0.06291  -0.2172  0.5755  0.3739  -1.1258   0.0000   0.4939
  -7.600   0.9171   0.06887   0.06449  -0.2179  0.5371  0.3931  -1.1547   0.0000   0.4876
  -7.400   0.9420   0.07021   0.06571  -0.2185  0.5086  0.4073  -1.1861   0.0000   0.4814
  -7.200   0.9650   0.07125   0.06664  -0.2188  0.4861  0.4179  -1.2160   0.0000   0.4757
  -7.000   0.9885   0.07224   0.06753  -0.2191  0.4648  0.4285  -1.2467   0.0000   0.4702
  -6.800   1.0110   0.07310   0.06829  -0.2193  0.4452  0.4367  -1.2768   0.0000   0.4650
  -6.600   1.0343   0.07395   0.06906  -0.2195  0.4275  0.4451  -1.3077   0.0000   0.4599
  -6.400   1.0578   0.07477   0.06979  -0.2198  0.4122  0.4526  -1.3389   0.0000   0.4551
  -6.200   1.0795   0.07547   0.07042  -0.2198  0.3987  0.4601  -1.3689   0.0000   0.4505
  -6.000   1.1034   0.07628   0.07115  -0.2201  0.3852  0.4678  -1.4008   0.0000   0.4460
  -5.800   1.1256   0.07695   0.07179  -0.2201  0.3747  0.4760  -1.4315   0.0000   0.4417
  -5.600   1.1486   0.07770   0.07247  -0.2203  0.3649  0.4839  -1.4631   0.0000   0.4376
  -5.400   1.1737   0.07854   0.07326  -0.2207  0.3570  0.4890  -1.4976   0.0000   0.4335
  -5.200   1.1912   0.07889   0.07358  -0.2200  0.3496  0.4924  -1.5273   0.0000   0.4298
  -5.000   1.2090   0.07925   0.07392  -0.2193  0.3432  0.4956  -1.5573   0.0000   0.4262
  -4.800   1.2280   0.07969   0.07433  -0.2188  0.3368  0.4988  -1.5888   0.0000   0.4226
  -4.600   1.2476   0.08020   0.07479  -0.2184  0.3297  0.5018  -1.6210   0.0000   0.4192
  -4.400   1.2688   0.08080   0.07536  -0.2183  0.3237  0.5053  -1.6548   0.0000   0.4158
  -4.200   1.2916   0.08151   0.07603  -0.2183  0.3176  0.5085  -1.6914   0.0000   0.4125
  -4.000   1.3075   0.08177   0.07627  -0.2174  0.3122  0.5111  -1.7219   0.0000   0.4094
  -3.800   1.3239   0.08206   0.07654  -0.2165  0.3075  0.5135  -1.7529   0.0000   0.4063
  -3.600   1.3415   0.08240   0.07688  -0.2157  0.3036  0.5163  -1.7852   0.0000   0.4033
  -3.400   1.3600   0.08282   0.07729  -0.2151  0.2994  0.5195  -1.8186   0.0000   0.4004
  -3.200   1.3794   0.08335   0.07778  -0.2147  0.2948  0.5227  -1.8533   0.0000   0.3976
  -3.000   1.4000   0.08396   0.07836  -0.2145  0.2902  0.5257  -1.8892   0.0000   0.3948
  -2.800   1.4211   0.08458   0.07896  -0.2143  0.2865  0.5283  -1.9260   0.0000   0.3921
  -2.600   1.4357   0.08476   0.07915  -0.2131  0.2828  0.5304  -1.9572   0.0000   0.3894
  -2.400   1.4510   0.08500   0.07938  -0.2120  0.2792  0.5326  -1.9910   0.0000   0.3868
  -2.200   1.4667   0.08530   0.07967  -0.2110  0.2757  0.5352  -2.0254   0.0000   0.3842
  -2.000   1.4837   0.08568   0.08005  -0.2102  0.2724  0.5381  -2.0614   0.0000   0.3817
  -1.800   1.5023   0.08615   0.08053  -0.2096  0.2694  0.5412  -2.0995   0.0000   0.3793
  -1.600   1.5222   0.08676   0.08111  -0.2093  0.2655  0.5442  -2.1395   0.0000   0.3769
  -1.400   1.5434   0.08750   0.08182  -0.2092  0.2612  0.5469  -2.1811   0.0000   0.3746
  -1.200   1.5577   0.08779   0.08210  -0.2080  0.2575  0.5489  -2.2152   0.0000   0.3723
  -1.000   1.5711   0.08798   0.08231  -0.2066  0.2548  0.5507  -2.2493   0.0000   0.3700
  -0.800   1.5850   0.08822   0.08257  -0.2054  0.2521  0.5528  -2.2843   0.0000   0.3677
  -0.600   1.5995   0.08853   0.08288  -0.2042  0.2492  0.5551  -2.3200   0.0000   0.3655
  -0.400   1.6149   0.08892   0.08328  -0.2032  0.2461  0.5578  -2.3572   0.0000   0.3633
  -0.200   1.6317   0.08945   0.08379  -0.2024  0.2428  0.5607  -2.3962   0.0000   0.3612
   0.000   1.6505   0.09012   0.08445  -0.2020  0.2395  0.5635  -2.4383   0.0000   0.3592
   0.200   1.6716   0.09090   0.08523  -0.2018  0.2366  0.5663  -2.4873   0.0000   0.3572
   0.400   1.6852   0.09117   0.08552  -0.2006  0.2337  0.5681  -2.5261   0.0000   0.3552
   0.600   1.6969   0.09134   0.08569  -0.1990  0.2309  0.5697  -2.5624   0.0000   0.3531
   0.800   1.7085   0.09153   0.08589  -0.1975  0.2279  0.5715  -2.5987   0.0000   0.3511
   1.000   1.7204   0.09180   0.08615  -0.1960  0.2245  0.5734  -2.6356   0.0000   0.3491
   1.200   1.7341   0.09209   0.08646  -0.1948  0.2220  0.5756  -2.6752   0.0000   0.3472
   1.400   1.7490   0.09250   0.08689  -0.1938  0.2189  0.5779  -2.7203   0.0000   0.3453
   1.600   1.7654   0.09306   0.08745  -0.1930  0.2158  0.5805  -2.7678   0.0000   0.3434
   1.800   1.7834   0.09381   0.08818  -0.1925  0.2127  0.5832  -2.8183   0.0000   0.3417
   2.000   1.8034   0.09475   0.08910  -0.1923  0.2092  0.5860  -2.8721   0.0000   0.3400
   2.200   1.8145   0.09491   0.08930  -0.1907  0.2071  0.5875  -2.9121   0.0000   0.3381
   2.400   1.8246   0.09506   0.08948  -0.1890  0.2044  0.5889  -2.9514   0.0000   0.3363
   2.600   1.8342   0.09527   0.08971  -0.1872  0.2015  0.5903  -2.9928   0.0000   0.3344
   2.800   1.8436   0.09560   0.09004  -0.1855  0.1986  0.5917  -3.0359   0.0000   0.3326
   3.000   1.8533   0.09601   0.09046  -0.1839  0.1957  0.5932  -3.0796   0.0000   0.3308
   3.200   1.8646   0.09643   0.09090  -0.1824  0.1935  0.5948  -3.1265   0.0000   0.3291
   3.400   1.8773   0.09692   0.09141  -0.1812  0.1909  0.5966  -3.1758   0.0000   0.3274
   3.600   1.8908   0.09751   0.09202  -0.1801  0.1876  0.5987  -3.2269   0.0000   0.3257
   3.800   1.9059   0.09833   0.09282  -0.1793  0.1838  0.6014  -3.2856   0.0000   0.3242
   4.000   1.9268   0.09958   0.09405  -0.1794  0.1800  0.6052  -3.3606   0.0000   0.3228
   4.200   1.9368   0.09991   0.09442  -0.1778  0.1777  0.6065  -3.4137   0.0000   0.3211
   4.400   1.9449   0.10018   0.09471  -0.1760  0.1751  0.6075  -3.4631   0.0000   0.3194
   4.600   1.9526   0.10052   0.09507  -0.1742  0.1721  0.6084  -3.5129   0.0000   0.3177
   4.800   1.9591   0.10103   0.09558  -0.1723  0.1690  0.6093  -3.5657   0.0000   0.3160
   5.000   1.9663   0.10152   0.09610  -0.1705  0.1663  0.6102  -3.6199   0.0000   0.3144
   5.200   1.9744   0.10197   0.09658  -0.1688  0.1635  0.6112  -3.6762   0.0000   0.3128
   5.400   1.9824   0.10249   0.09712  -0.1672  0.1604  0.6124  -3.7330   0.0000   0.3112
   5.600   1.9902   0.10309   0.09773  -0.1656  0.1572  0.6137  -3.7894   0.0000   0.3096
   5.800   1.9982   0.10375   0.09840  -0.1640  0.1543  0.6152  -3.8525   0.0000   0.3081
   6.000   2.0082   0.10441   0.09908  -0.1627  0.1518  0.6170  -3.9213   0.0000   0.3066
   6.200   2.0183   0.10533   0.10003  -0.1616  0.1486  0.6190  -3.9910   0.0000   0.3051
   6.400   2.0317   0.10671   0.10139  -0.1610  0.1445  0.6222  -4.0704   0.0000   0.3038
   6.600   2.0476   0.10812   0.10280  -0.1607  0.1408  0.6253  -4.1565   0.0000   0.3026
   6.800   2.0531   0.10868   0.10340  -0.1590  0.1379  0.6259  -4.2152   0.0000   0.3011
   7.000   2.0576   0.10934   0.10407  -0.1572  0.1347  0.6265  -4.2753   0.0000   0.2996
   7.200   2.0599   0.11022   0.10497  -0.1553  0.1317  0.6271  -4.3325   0.0000   0.2981
   7.400   2.0637   0.11095   0.10574  -0.1535  0.1292  0.6277  -4.3940   0.0000   0.2966
   7.600   2.0679   0.11167   0.10649  -0.1518  0.1263  0.6284  -4.4569   0.0000   0.2951
   7.800   2.0711   0.11254   0.10739  -0.1501  0.1232  0.6291  -4.5174   0.0000   0.2937
   8.000   2.0726   0.11366   0.10851  -0.1485  0.1203  0.6298  -4.5736   0.0000   0.2923
   8.200   2.0768   0.11452   0.10942  -0.1470  0.1178  0.6306  -4.6372   0.0000   0.2910
   8.400   2.0803   0.11551   0.11045  -0.1455  0.1151  0.6313  -4.6991   0.0000   0.2896
   8.600   2.0823   0.11671   0.11167  -0.1441  0.1123  0.6321  -4.7584   0.0000   0.2883
   8.800   2.0839   0.11798   0.11295  -0.1427  0.1096  0.6330  -4.8216   0.0000   0.2871
   9.000   2.0872   0.11912   0.11415  -0.1415  0.1071  0.6340  -4.8903   0.0000   0.2858
   9.200   2.0897   0.12044   0.11550  -0.1404  0.1041  0.6351  -4.9564   0.0000   0.2847
   9.400   2.0907   0.12199   0.11707  -0.1394  0.1010  0.6363  -5.0183   0.0000   0.2836
   9.600   2.0941   0.12351   0.11863  -0.1387  0.0984  0.6382  -5.0880   0.0000   0.2825
   9.800   2.1105   0.12613   0.12125  -0.1399  0.0941  0.6444  -5.2027   0.0000   0.2819
  10.000   2.1075   0.12769   0.12284  -0.1388  0.0917  0.6448  -5.2513   0.0000   0.2808
  10.200   2.1069   0.12900   0.12420  -0.1378  0.0896  0.6453  -5.3072   0.0000   0.2798
  10.400   2.1052   0.13049   0.12573  -0.1369  0.0872  0.6457  -5.3596   0.0000   0.2788
  10.600   2.1025   0.13212   0.12741  -0.1362  0.0848  0.6461  -5.4084   0.0000   0.2779
  10.800   2.0991   0.13384   0.12917  -0.1356  0.0827  0.6465  -5.4546   0.0000   0.2770
  11.000   2.0974   0.13540   0.13078  -0.1351  0.0807  0.6469  -5.5060   0.0000   0.2762
  11.200   2.0948   0.13706   0.13249  -0.1346  0.0785  0.6473  -5.5541   0.0000   0.2754
  11.400   2.0904   0.13896   0.13444  -0.1344  0.0762  0.6477  -5.5952   0.0000   0.2748
  11.600   2.0859   0.14089   0.13641  -0.1344  0.0743  0.6481  -5.6356   0.0000   0.2742
  11.800   2.0826   0.14265   0.13822  -0.1343  0.0722  0.6486  -5.6798   0.0000   0.2736
  12.000   2.0778   0.14460   0.14023  -0.1345  0.0701  0.6491  -5.7195   0.0000   0.2731
  12.200   2.0710   0.14683   0.14250  -0.1349  0.0682  0.6496  -5.7511   0.0000   0.2727
  12.400   2.0669   0.14875   0.14449  -0.1353  0.0665  0.6502  -5.7919   0.0000   0.2723
  12.600   2.0625   0.15072   0.14651  -0.1358  0.0646  0.6509  -5.8324   0.0000   0.2720
  12.800   2.0567   0.15293   0.14878  -0.1366  0.0628  0.6515  -5.8667   0.0000   0.2718
  13.000   2.0494   0.15536   0.15126  -0.1377  0.0613  0.6522  -5.8943   0.0000   0.2718
  13.200   2.0452   0.15748   0.15344  -0.1387  0.0598  0.6530  -5.9337   0.0000   0.2716
  13.400   2.0405   0.15970   0.15572  -0.1398  0.0582  0.6538  -5.9705   0.0000   0.2715
  13.600   2.0342   0.16219   0.15827  -0.1413  0.0566  0.6547  -5.9993   0.0000   0.2717
  13.800   2.0269   0.16491   0.16104  -0.1432  0.0551  0.6558  -6.0221   0.0000   0.2720
  14.000   2.0234   0.16733   0.16352  -0.1449  0.0537  0.6574  -6.0614   0.0000   0.2721
  14.200   2.0299   0.17100   0.16723  -0.1487  0.0515  0.6634  -6.1443   0.0000   0.2728
  14.400   2.0210   0.17357   0.16987  -0.1506  0.0503  0.6637  -6.1608   0.0000   0.2731
  14.600   2.0126   0.17608   0.17244  -0.1525  0.0492  0.6640  -6.1786   0.0000   0.2735
  14.800   2.0067   0.17822   0.17464  -0.1540  0.0481  0.6643  -6.2081   0.0000   0.2737
  15.000   1.9993   0.18058   0.17707  -0.1558  0.0470  0.6646  -6.2289   0.0000   0.2740
  15.200   1.9913   0.18304   0.17958  -0.1578  0.0459  0.6649  -6.2458   0.0000   0.2744
  15.400   1.9832   0.18550   0.18210  -0.1599  0.0448  0.6652  -6.2612   0.0000   0.2749
  15.600   1.9757   0.18792   0.18458  -0.1619  0.0439  0.6655  -6.2779   0.0000   0.2754
  15.800   1.9703   0.19000   0.18672  -0.1637  0.0429  0.6658  -6.3061   0.0000   0.2756
  16.000   1.9628   0.19244   0.18921  -0.1659  0.0418  0.6662  -6.3214   0.0000   0.2762
  16.200   1.9564   0.19471   0.19153  -0.1679  0.0408  0.6665  -6.3420   0.0000   0.2766
  16.400   1.9479   0.19735   0.19421  -0.1705  0.0398  0.6669  -6.3491   0.0000   0.2773
  16.600   1.9438   0.19931   0.19622  -0.1723  0.0389  0.6673  -6.3807   0.0000   0.2776
  16.800   1.9380   0.20156   0.19853  -0.1745  0.0380  0.6677  -6.4014   0.0000   0.2781
  17.000   1.9329   0.20370   0.20071  -0.1766  0.0370  0.6681  -6.4255   0.0000   0.2785
  17.200   1.9267   0.20601   0.20307  -0.1790  0.0360  0.6685  -6.4423   0.0000   0.2791
  17.400   1.9207   0.20831   0.20541  -0.1814  0.0352  0.6690  -6.4588   0.0000   0.2797
  17.600   1.9178   0.21012   0.20727  -0.1832  0.0344  0.6696  -6.4941   0.0000   0.2798
  17.800   1.9130   0.21227   0.20946  -0.1855  0.0335  0.6701  -6.5161   0.0000   0.2803
  18.000   1.9085   0.21437   0.21160  -0.1878  0.0326  0.6708  -6.5393   0.0000   0.2808
  18.200   1.9042   0.21646   0.21372  -0.1901  0.0318  0.6714  -6.5629   0.0000   0.2813
  18.400   1.8995   0.21864   0.21594  -0.1926  0.0311  0.6722  -6.5824   0.0000   0.2819
  18.600   1.8975   0.22041   0.21776  -0.1946  0.0302  0.6731  -6.6196   0.0000   0.2821
  18.800   1.8953   0.22228   0.21966  -0.1967  0.0294  0.6742  -6.6539   0.0000   0.2824
  19.000   1.8909   0.22460   0.22202  -0.1996  0.0286  0.6754  -6.6714   0.0000   0.2831
  19.200   1.8892   0.22693   0.22438  -0.2025  0.0279  0.6778  -6.7024   0.0000   0.2837
  19.400   1.8943   0.22927   0.22675  -0.2058  0.0271  0.6824  -6.7704   0.0000   0.2841
  19.600   1.8900   0.23110   0.22863  -0.2080  0.0264  0.6826  -6.7904   0.0000   0.2845
  19.800   1.8863   0.23283   0.23039  -0.2100  0.0258  0.6829  -6.8146   0.0000   0.2849
  20.000   1.8825   0.23456   0.23216  -0.2121  0.0252  0.6832  -6.8378   0.0000   0.2852
  20.400   1.8749   0.23811   0.23577  -0.2166  0.0240  0.6837  -6.8790   0.0000   0.2860
  20.600   1.8726   0.23958   0.23728  -0.2184  0.0234  0.6840  -6.9116   0.0000   0.2862
  20.800   1.8699   0.24112   0.23886  -0.2204  0.0228  0.6844  -6.9403   0.0000   0.2864


