xflr5 v6.47

 Calculated polar for: NACA24018_theta30_Ku4.5_Kl0.5_d0.07_delta1.57

 1 1 Reynolds number fixed          Mach number fixed         

 xtrf =   1.000 (top)        1.000 (bottom)
 Mach =   0.000     Re =     1.000 e 6     Ncrit =   5.000

  alpha     CL        CD       CDp       Cm    Top Xtr Bot Xtr   Cpmin    Chinge    XCp    
 ------- -------- --------- --------- -------- ------- ------- -------- --------- ---------
 -15.000  -1.0973   0.02864   0.02335  -0.0724  0.9924  0.0269  -6.9652   0.0000   0.1609
 -14.800  -1.0831   0.02805   0.02274  -0.0725  0.9916  0.0273  -6.8422   0.0000   0.1603
 -14.000  -1.0247   0.02559   0.02018  -0.0720  0.9853  0.0285  -6.3548   0.0000   0.1581
 -13.800  -1.0067   0.02501   0.01957  -0.0723  0.9832  0.0289  -6.2229   0.0000   0.1568
 -13.600  -0.9866   0.02458   0.01911  -0.0730  0.9823  0.0292  -6.0845   0.0000   0.1549
 -13.400  -0.9714   0.02389   0.01839  -0.0726  0.9791  0.0294  -5.9637   0.0000   0.1544
 -13.200  -0.9537   0.02331   0.01780  -0.0728  0.9777  0.0300  -5.8362   0.0000   0.1530
 -13.000  -0.9338   0.02286   0.01734  -0.0733  0.9769  0.0305  -5.7009   0.0000   0.1511
 -12.800  -0.9223   0.02216   0.01663  -0.0721  0.9735  0.0309  -5.5945   0.0000   0.1517
 -12.600  -0.9038   0.02169   0.01615  -0.0722  0.9722  0.0314  -5.4655   0.0000   0.1502
 -12.400  -0.8835   0.02126   0.01571  -0.0726  0.9713  0.0319  -5.3320   0.0000   0.1482
 -12.200  -0.8727   0.02064   0.01507  -0.0711  0.9677  0.0323  -5.2298   0.0000   0.1492
 -12.000  -0.8543   0.02019   0.01460  -0.0709  0.9660  0.0327  -5.1046   0.0000   0.1478
 -11.800  -0.8340   0.01978   0.01417  -0.0711  0.9650  0.0332  -4.9743   0.0000   0.1457
 -11.600  -0.8269   0.01918   0.01355  -0.0687  0.9599  0.0335  -4.8896   0.0000   0.1482
 -11.400  -0.8219   0.01862   0.01296  -0.0659  0.9532  0.0337  -4.8117   0.0000   0.1515
 -11.200  -0.8177   0.01810   0.01243  -0.0630  0.9451  0.0342  -4.7369   0.0000   0.1551
 -11.000  -0.8055   0.01766   0.01199  -0.0615  0.9402  0.0348  -4.6385   0.0000   0.1561
 -10.800  -0.7925   0.01725   0.01158  -0.0601  0.9358  0.0353  -4.5378   0.0000   0.1568
 -10.600  -0.7763   0.01685   0.01116  -0.0592  0.9331  0.0359  -4.4288   0.0000   0.1566
 -10.400  -0.7650   0.01650   0.01080  -0.0574  0.9271  0.0365  -4.3361   0.0000   0.1581
 -10.200  -0.7459   0.01612   0.01041  -0.0571  0.9239  0.0372  -4.2252   0.0000   0.1568
 -10.000  -0.7262   0.01577   0.01004  -0.0568  0.9201  0.0379  -4.1140   0.0000   0.1553
  -9.800  -0.7064   0.01543   0.00969  -0.0565  0.9150  0.0385  -4.0034   0.0000   0.1536
  -9.600  -0.6828   0.01499   0.00925  -0.0570  0.9113  0.0395  -3.8845   0.0000   0.1502
  -9.400  -0.6593   0.01460   0.00886  -0.0574  0.9059  0.0405  -3.7663   0.0000   0.1466
  -9.200  -0.6314   0.01421   0.00846  -0.0587  0.9010  0.0415  -3.6385   0.0000   0.1408
  -9.000  -0.6013   0.01382   0.00806  -0.0603  0.8948  0.0426  -3.5068   0.0000   0.1332
  -8.800  -0.5665   0.01342   0.00762  -0.0629  0.8862  0.0436  -3.3653   0.0000   0.1223
  -8.600  -0.5261   0.01296   0.00714  -0.0667  0.8735  0.0453  -3.2122   0.0000   0.1061
  -8.400  -0.4867   0.01259   0.00671  -0.0703  0.8549  0.0470  -3.0641   0.0000   0.0880
  -8.200  -0.4554   0.01234   0.00638  -0.0722  0.8341  0.0485  -2.9374   0.0000   0.0734
  -8.000  -0.4298   0.01216   0.00611  -0.0730  0.8145  0.0495  -2.8258   0.0000   0.0619
  -7.800  -0.4099   0.01200   0.00588  -0.0726  0.7951  0.0509  -2.7289   0.0000   0.0545
  -7.600  -0.3919   0.01186   0.00568  -0.0718  0.7748  0.0524  -2.6377   0.0000   0.0481
  -7.400  -0.3746   0.01175   0.00550  -0.0709  0.7548  0.0540  -2.5525   0.0000   0.0420
  -7.200  -0.3570   0.01166   0.00533  -0.0700  0.7358  0.0555  -2.4677   0.0000   0.0351
  -7.000  -0.3394   0.01157   0.00517  -0.0691  0.7176  0.0568  -2.3837   0.0000   0.0273
  -6.800  -0.3216   0.01146   0.00502  -0.0683  0.7009  0.0587  -2.3005   0.0000   0.0185
  -6.600  -0.3033   0.01137   0.00488  -0.0675  0.6855  0.0606  -2.2170   0.0000   0.0079
  -6.400  -0.2848   0.01129   0.00474  -0.0668  0.6696  0.0624  -2.1344   0.0000  -0.0044
  -6.200  -0.2660   0.01123   0.00462  -0.0661  0.6531  0.0641  -2.0560   0.0000  -0.0188
  -6.000  -0.2473   0.01114   0.00449  -0.0654  0.6368  0.0669  -1.9785   0.0000  -0.0354
  -5.800  -0.2280   0.01107   0.00438  -0.0648  0.6212  0.0696  -1.9008   0.0000  -0.0560
  -5.600  -0.2082   0.01102   0.00427  -0.0643  0.6063  0.0719  -1.8233   0.0000  -0.0814
  -5.200  -0.1684   0.01089   0.00407  -0.0634  0.5759  0.0786  -1.6726   0.0000  -0.1516
  -5.000  -0.1480   0.01085   0.00398  -0.0631  0.5611  0.0821  -1.6008   0.0000  -0.2028
  -4.800  -0.1274   0.01078   0.00390  -0.0628  0.5475  0.0868  -1.5294   0.0000  -0.2718
  -4.600  -0.1066   0.01074   0.00382  -0.0625  0.5337  0.0910  -1.4585   0.0000  -0.3690
  -4.400  -0.0857   0.01069   0.00374  -0.0622  0.5195  0.0969  -1.3886   0.0000  -0.5142
  -4.200  -0.0646   0.01066   0.00368  -0.0620  0.5054  0.1022  -1.3193   0.0000  -0.7561
  -4.000  -0.0434   0.01060   0.00361  -0.0618  0.4924  0.1090  -1.2508   0.0000  -1.2411
  -3.800  -0.0218   0.01057   0.00355  -0.0616  0.4807  0.1158  -1.1863   0.0000  -2.6932
  -3.600  -0.0002   0.01052   0.00350  -0.0615  0.4691  0.1256  -1.1226   0.0000  -301.3580
  -3.400   0.0215   0.01047   0.00344  -0.0615  0.4569  0.1374  -1.0596   0.0000   3.2076
  -3.200   0.0435   0.01042   0.00340  -0.0615  0.4443  0.1504  -0.9979   0.0000   1.7085
  -3.000   0.0659   0.01034   0.00335  -0.0616  0.4324  0.1692  -0.9393   0.0000   1.2109
  -2.800   0.0891   0.01022   0.00329  -0.0619  0.4218  0.1985  -0.8821   0.0000   0.9622
  -2.600   0.1135   0.01002   0.00322  -0.0626  0.4110  0.2471  -0.8261   0.0000   0.8128
  -2.200   0.1675   0.00957   0.00314  -0.0651  0.3893  0.3771  -0.8243   0.0000   0.6438
  -2.000   0.1933   0.00950   0.00315  -0.0659  0.3807  0.4115  -0.8509   0.0000   0.5943
  -1.800   0.2198   0.00945   0.00317  -0.0668  0.3722  0.4443  -0.8785   0.0000   0.5561
  -1.600   0.2465   0.00941   0.00320  -0.0678  0.3648  0.4742  -0.9065   0.0000   0.5259
  -1.400   0.2722   0.00942   0.00323  -0.0685  0.3568  0.4960  -0.9340   0.0000   0.5016
  -0.800   0.3506   0.00949   0.00338  -0.0709  0.3364  0.5540  -1.0203   0.0000   0.4500
  -0.600   0.3768   0.00954   0.00344  -0.0717  0.3304  0.5721  -1.0509   0.0000   0.4376
  -0.400   0.4040   0.00958   0.00351  -0.0727  0.3250  0.5912  -1.0831   0.0000   0.4268
  -0.200   0.4314   0.00962   0.00358  -0.0737  0.3192  0.6098  -1.1156   0.0000   0.4173
   0.000   0.4575   0.00970   0.00367  -0.0745  0.3137  0.6248  -1.1474   0.0000   0.4089
   0.200   0.4820   0.00977   0.00373  -0.0749  0.3096  0.6338  -1.1782   0.0000   0.4011
   0.400   0.5068   0.00984   0.00381  -0.0754  0.3050  0.6415  -1.2093   0.0000   0.3940
   0.600   0.5307   0.00994   0.00389  -0.0756  0.3002  0.6492  -1.2399   0.0000   0.3876
   0.800   0.5554   0.01002   0.00397  -0.0761  0.2965  0.6572  -1.2713   0.0000   0.3817
   1.000   0.5796   0.01010   0.00405  -0.0764  0.2929  0.6644  -1.3025   0.0000   0.3763
   1.200   0.6041   0.01019   0.00415  -0.0768  0.2892  0.6723  -1.3356   0.0000   0.3714
   1.400   0.6279   0.01030   0.00425  -0.0771  0.2856  0.6799  -1.3684   0.0000   0.3667
   1.600   0.6524   0.01039   0.00435  -0.0775  0.2827  0.6877  -1.4018   0.0000   0.3624
   1.800   0.6764   0.01049   0.00445  -0.0778  0.2793  0.6950  -1.4352   0.0000   0.3584
   2.000   0.7004   0.01060   0.00455  -0.0781  0.2754  0.7029  -1.4687   0.0000   0.3547
   2.200   0.7238   0.01072   0.00467  -0.0784  0.2717  0.7101  -1.5029   0.0000   0.3511
   2.400   0.7477   0.01083   0.00479  -0.0787  0.2690  0.7180  -1.5383   0.0000   0.3478
   2.600   0.7713   0.01093   0.00491  -0.0789  0.2662  0.7249  -1.5736   0.0000   0.3446
   2.800   0.7946   0.01105   0.00503  -0.0791  0.2628  0.7321  -1.6089   0.0000   0.3416
   3.000   0.8173   0.01119   0.00516  -0.0791  0.2592  0.7387  -1.6447   0.0000   0.3387
   3.200   0.8400   0.01132   0.00530  -0.0792  0.2561  0.7456  -1.6816   0.0000   0.3359
   3.400   0.8629   0.01144   0.00543  -0.0793  0.2537  0.7522  -1.7190   0.0000   0.3333
   3.600   0.8852   0.01156   0.00557  -0.0793  0.2506  0.7588  -1.7565   0.0000   0.3307
   3.800   0.9073   0.01171   0.00572  -0.0792  0.2472  0.7654  -1.7954   0.0000   0.3282
   4.000   0.9281   0.01188   0.00588  -0.0790  0.2439  0.7713  -1.8332   0.0000   0.3257
   4.200   0.9498   0.01201   0.00603  -0.0788  0.2416  0.7779  -1.8720   0.0000   0.3234
   4.400   0.9709   0.01215   0.00619  -0.0786  0.2390  0.7838  -1.9105   0.0000   0.3211
   4.600   0.9912   0.01230   0.00635  -0.0782  0.2360  0.7900  -1.9484   0.0000   0.3188
   4.800   1.0122   0.01248   0.00652  -0.0780  0.2327  0.7956  -1.9871   0.0000   0.3166
   5.000   1.0304   0.01266   0.00671  -0.0772  0.2297  0.8006  -2.0231   0.0000   0.3143
   5.200   1.0505   0.01281   0.00688  -0.0768  0.2278  0.8060  -2.0619   0.0000   0.3122
   5.400   1.0718   0.01297   0.00705  -0.0766  0.2254  0.8110  -2.1036   0.0000   0.3103
   5.600   1.0886   0.01313   0.00724  -0.0755  0.2230  0.8158  -2.1406   0.0000   0.3079
   5.800   1.1071   0.01332   0.00743  -0.0748  0.2201  0.8206  -2.1797   0.0000   0.3059
   6.000   1.1273   0.01355   0.00765  -0.0745  0.2170  0.8251  -2.2207   0.0000   0.3041
   6.200   1.1427   0.01371   0.00784  -0.0732  0.2149  0.8294  -2.2586   0.0000   0.3018
   6.400   1.1598   0.01388   0.00804  -0.0722  0.2126  0.8339  -2.2988   0.0000   0.2997
   6.600   1.1792   0.01409   0.00825  -0.0718  0.2098  0.8381  -2.3439   0.0000   0.2980
   6.800   1.1955   0.01432   0.00848  -0.0707  0.2069  0.8416  -2.3854   0.0000   0.2960
   7.000   1.2076   0.01455   0.00872  -0.0688  0.2041  0.8453  -2.4222   0.0000   0.2936
   7.200   1.2239   0.01475   0.00894  -0.0678  0.2019  0.8492  -2.4642   0.0000   0.2917
   7.400   1.2439   0.01498   0.00918  -0.0674  0.1992  0.8530  -2.5112   0.0000   0.2903
   7.600   1.2583   0.01521   0.00942  -0.0660  0.1965  0.8562  -2.5534   0.0000   0.2882
   7.800   1.2683   0.01544   0.00967  -0.0638  0.1941  0.8594  -2.5917   0.0000   0.2857
   8.000   1.2813   0.01572   0.00996  -0.0622  0.1915  0.8625  -2.6346   0.0000   0.2837
   8.200   1.2990   0.01599   0.01024  -0.0616  0.1893  0.8654  -2.6843   0.0000   0.2822
   8.400   1.3198   0.01627   0.01053  -0.0615  0.1865  0.8681  -2.7383   0.0000   0.2811
   8.600   1.3288   0.01652   0.01080  -0.0592  0.1840  0.8707  -2.7763   0.0000   0.2787
   8.800   1.3355   0.01680   0.01111  -0.0564  0.1814  0.8733  -2.8112   0.0000   0.2761
   9.000   1.3467   0.01715   0.01146  -0.0546  0.1786  0.8760  -2.8546   0.0000   0.2742
   9.200   1.3624   0.01745   0.01178  -0.0537  0.1765  0.8785  -2.9075   0.0000   0.2727
   9.400   1.3810   0.01779   0.01213  -0.0534  0.1742  0.8808  -2.9650   0.0000   0.2716
   9.600   1.3994   0.01817   0.01252  -0.0531  0.1713  0.8829  -3.0225   0.0000   0.2705
   9.800   1.4008   0.01851   0.01288  -0.0495  0.1689  0.8849  -3.0554   0.0000   0.2676
  10.000   1.4066   0.01893   0.01332  -0.0469  0.1660  0.8868  -3.0979   0.0000   0.2653
  10.200   1.4164   0.01929   0.01370  -0.0450  0.1638  0.8886  -3.1474   0.0000   0.2634
  10.400   1.4278   0.01969   0.01413  -0.0435  0.1614  0.8906  -3.1997   0.0000   0.2617
  10.600   1.4413   0.02015   0.01460  -0.0425  0.1588  0.8925  -3.2557   0.0000   0.2604
  10.800   1.4566   0.02071   0.01516  -0.0419  0.1556  0.8945  -3.3151   0.0000   0.2593
  11.000   1.4756   0.02127   0.01572  -0.0421  0.1525  0.8961  -3.3854   0.0000   0.2587
  11.200   1.4779   0.02171   0.01620  -0.0390  0.1503  0.8975  -3.4289   0.0000   0.2563
  11.400   1.4801   0.02221   0.01673  -0.0361  0.1480  0.8989  -3.4722   0.0000   0.2539
  11.600   1.4838   0.02278   0.01732  -0.0335  0.1456  0.9003  -3.5185   0.0000   0.2517
  11.800   1.4882   0.02344   0.01800  -0.0313  0.1430  0.9019  -3.5660   0.0000   0.2498
  12.000   1.4962   0.02406   0.01864  -0.0297  0.1407  0.9033  -3.6214   0.0000   0.2482
  12.200   1.5063   0.02472   0.01933  -0.0285  0.1379  0.9047  -3.6858   0.0000   0.2469
  12.400   1.5168   0.02550   0.02012  -0.0277  0.1345  0.9061  -3.7514   0.0000   0.2458
  12.600   1.5280   0.02644   0.02105  -0.0272  0.1309  0.9074  -3.8183   0.0000   0.2450
  12.800   1.5437   0.02726   0.02191  -0.0273  0.1283  0.9086  -3.8969   0.0000   0.2445
  13.000   1.5494   0.02809   0.02276  -0.0258  0.1258  0.9096  -3.9551   0.0000   0.2430
  13.200   1.5471   0.02895   0.02365  -0.0229  0.1236  0.9105  -3.9947   0.0000   0.2408
  13.400   1.5454   0.02993   0.02466  -0.0204  0.1212  0.9115  -4.0357   0.0000   0.2388
  13.600   1.5455   0.03095   0.02571  -0.0183  0.1190  0.9126  -4.0804   0.0000   0.2370
  13.800   1.5485   0.03192   0.02673  -0.0167  0.1170  0.9137  -4.1323   0.0000   0.2355
  14.000   1.5518   0.03305   0.02789  -0.0154  0.1143  0.9148  -4.1843   0.0000   0.2342
  14.200   1.5544   0.03437   0.02923  -0.0143  0.1114  0.9159  -4.2344   0.0000   0.2330
  14.400   1.5568   0.03585   0.03073  -0.0135  0.1087  0.9169  -4.2872   0.0000   0.2320
  14.600   1.5635   0.03714   0.03206  -0.0131  0.1066  0.9178  -4.3524   0.0000   0.2313
  14.800   1.5693   0.03862   0.03358  -0.0129  0.1041  0.9187  -4.4151   0.0000   0.2307
  15.000   1.5736   0.04035   0.03534  -0.0129  0.1013  0.9195  -4.4730   0.0000   0.2302
  15.200   1.5764   0.04236   0.03737  -0.0131  0.0985  0.9202  -4.5281   0.0000   0.2298
  15.400   1.5836   0.04413   0.03919  -0.0136  0.0963  0.9208  -4.5965   0.0000   0.2296
  15.600   1.5813   0.04597   0.04107  -0.0128  0.0941  0.9214  -4.6386   0.0000   0.2286
  15.800   1.5747   0.04794   0.04309  -0.0116  0.0921  0.9220  -4.6683   0.0000   0.2274
  16.000   1.5678   0.05016   0.04536  -0.0108  0.0901  0.9226  -4.6960   0.0000   0.2264
  16.200   1.5611   0.05243   0.04767  -0.0101  0.0884  0.9232  -4.7236   0.0000   0.2255
  16.400   1.5566   0.05458   0.04988  -0.0096  0.0869  0.9238  -4.7574   0.0000   0.2247
  16.600   1.5511   0.05700   0.05237  -0.0094  0.0851  0.9244  -4.7871   0.0000   0.2240
  16.800   1.5441   0.05976   0.05517  -0.0096  0.0832  0.9249  -4.8109   0.0000   0.2236
  17.000   1.5354   0.06284   0.05831  -0.0100  0.0813  0.9253  -4.8280   0.0000   0.2234
  17.200   1.5258   0.06613   0.06166  -0.0106  0.0794  0.9256  -4.8409   0.0000   0.2233
  17.400   1.5198   0.06908   0.06468  -0.0113  0.0780  0.9259  -4.8652   0.0000   0.2232
  17.600   1.5118   0.07233   0.06800  -0.0122  0.0764  0.9263  -4.8817   0.0000   0.2232
  17.800   1.5016   0.07589   0.07163  -0.0132  0.0747  0.9266  -4.8897   0.0000   0.2234
  18.000   1.4895   0.07974   0.07554  -0.0144  0.0731  0.9270  -4.8899   0.0000   0.2237
  18.200   1.4760   0.08383   0.07969  -0.0158  0.0715  0.9272  -4.8837   0.0000   0.2242
  18.400   1.4651   0.08768   0.08362  -0.0173  0.0702  0.9275  -4.8851   0.0000   0.2246
  18.600   1.4557   0.09139   0.08740  -0.0188  0.0690  0.9278  -4.8911   0.0000   0.2252
  18.800   1.4454   0.09527   0.09135  -0.0205  0.0676  0.9280  -4.8938   0.0000   0.2258
  19.000   1.4336   0.09937   0.09551  -0.0223  0.0662  0.9282  -4.8910   0.0000   0.2266
  19.200   1.4210   0.10364   0.09984  -0.0243  0.0648  0.9283  -4.8829   0.0000   0.2276
  19.400   1.4082   0.10799   0.10425  -0.0265  0.0633  0.9284  -4.8723   0.0000   0.2287
  19.600   1.3994   0.11183   0.10815  -0.0285  0.0622  0.9286  -4.8765   0.0000   0.2297
  19.800   1.3918   0.11553   0.11191  -0.0306  0.0609  0.9288  -4.8845   0.0000   0.2306
  20.000   1.3846   0.11918   0.11561  -0.0326  0.0595  0.9290  -4.8929   0.0000   0.2317
  20.200   1.3758   0.12309   0.11957  -0.0349  0.0580  0.9292  -4.8931   0.0000   0.2329
  20.400   1.3658   0.12724   0.12376  -0.0375  0.0565  0.9293  -4.8859   0.0000   0.2343
  20.600   1.3594   0.13088   0.12745  -0.0398  0.0552  0.9296  -4.8933   0.0000   0.2356
  20.800   1.3554   0.13423   0.13085  -0.0421  0.0540  0.9298  -4.9098   0.0000   0.2367
  21.000   1.3526   0.13742   0.13408  -0.0443  0.0527  0.9301  -4.9312   0.0000   0.2378
  21.200   1.3470   0.14104   0.13775  -0.0469  0.0515  0.9304  -4.9380   0.0000   0.2393
  21.400   1.3425   0.14454   0.14128  -0.0495  0.0501  0.9307  -4.9489   0.0000   0.2407
  21.600   1.3364   0.14833   0.14511  -0.0523  0.0489  0.9309  -4.9533   0.0000   0.2424
  21.800   1.3375   0.15108   0.14790  -0.0546  0.0479  0.9312  -4.9923   0.0000   0.2434
  22.000   1.3356   0.15431   0.15117  -0.0572  0.0467  0.9314  -5.0155   0.0000   0.2448
  22.200   1.3348   0.15739   0.15428  -0.0598  0.0455  0.9316  -5.0434   0.0000   0.2461
  22.400   1.3317   0.16084   0.15776  -0.0627  0.0442  0.9318  -5.0582   0.0000   0.2478
  22.600   1.3283   0.16438   0.16133  -0.0657  0.0429  0.9320  -5.0691   0.0000   0.2496
  22.800   1.3273   0.16678   0.16376  -0.0674  0.0420  0.9322  -5.0998   0.0000   0.2503
  23.000   1.3241   0.16948   0.16649  -0.0693  0.0410  0.9324  -5.1180   0.0000   0.2512
  23.200   1.3217   0.17206   0.16910  -0.0711  0.0400  0.9326  -5.1394   0.0000   0.2520
  23.400   1.3188   0.17465   0.17172  -0.0730  0.0390  0.9329  -5.1583   0.0000   0.2529
  23.600   1.3128   0.17772   0.17482  -0.0752  0.0380  0.9332  -5.1579   0.0000   0.2542
  23.800   1.3095   0.18031   0.17743  -0.0770  0.0371  0.9336  -5.1732   0.0000   0.2552
  24.000   1.3098   0.18234   0.17949  -0.0785  0.0364  0.9339  -5.2087   0.0000   0.2556
  24.200   1.3083   0.18482   0.18201  -0.0804  0.0356  0.9343  -5.2311   0.0000   0.2565
  24.400   1.3070   0.18739   0.18461  -0.0826  0.0347  0.9346  -5.2525   0.0000   0.2576
  24.600   1.3065   0.18989   0.18713  -0.0848  0.0339  0.9348  -5.2778   0.0000   0.2586
  24.800   1.3043   0.19275   0.19001  -0.0873  0.0330  0.9351  -5.2911   0.0000   0.2600
  25.000   1.3023   0.19559   0.19288  -0.0898  0.0322  0.9353  -5.3054   0.0000   0.2614


