xflr5 v6.47

 Calculated polar for: NACA24018_theta30_Ku4.5_Kl0.5_d0.35_delta13.38

 1 1 Reynolds number fixed          Mach number fixed         

 xtrf =   1.000 (top)        1.000 (bottom)
 Mach =   0.000     Re =     1.400 e 6     Ncrit =   5.000

  alpha     CL        CD       CDp       Cm    Top Xtr Bot Xtr   Cpmin    Chinge    XCp    
 ------- -------- --------- --------- -------- ------- ------- -------- --------- ---------
  -9.800   0.6711   0.08217   0.07916  -0.1908  0.6887  0.1319  -0.8819   0.0000   0.5354
  -9.600   0.7504   0.08025   0.07721  -0.1979  0.6798  0.1534  -0.9742   0.0000   0.5143
  -9.400   0.8667   0.07647   0.07323  -0.2102  0.6543  0.1872  -1.2232   0.0000   0.4926
  -9.200   0.8725   0.07888   0.07517  -0.2084  0.5643  0.1989  -1.2024   0.0000   0.4882
  -9.000   0.8937   0.08104   0.07717  -0.2088  0.5224  0.2189  -1.1884   0.0000   0.4825
  -8.800   0.9222   0.08304   0.07906  -0.2103  0.4893  0.2426  -1.1866   0.0000   0.4762
  -8.600   0.9633   0.08556   0.08151  -0.2136  0.4602  0.2804  -1.1991   0.0000   0.4694
  -8.400   1.0077   0.08816   0.08406  -0.2173  0.4367  0.3232  -1.2180   0.0000   0.4628
  -8.200   1.0426   0.08999   0.08583  -0.2194  0.4169  0.3506  -1.2568   0.0000   0.4572
  -8.000   1.0745   0.09154   0.08731  -0.2211  0.3989  0.3698  -1.2950   0.0000   0.4520
  -7.800   1.1024   0.09277   0.08846  -0.2221  0.3835  0.3844  -1.3314   0.0000   0.4473
  -7.600   1.1248   0.09358   0.08921  -0.2222  0.3712  0.3942  -1.3632   0.0000   0.4431
  -7.400   1.1502   0.09460   0.09019  -0.2228  0.3599  0.4039  -1.3978   0.0000   0.4388
  -7.200   1.1731   0.09545   0.09097  -0.2230  0.3495  0.4131  -1.4304   0.0000   0.4349
  -7.000   1.1965   0.09632   0.09181  -0.2233  0.3414  0.4206  -1.4636   0.0000   0.4310
  -6.800   1.2186   0.09709   0.09256  -0.2233  0.3349  0.4268  -1.4959   0.0000   0.4274
  -6.600   1.2397   0.09780   0.09322  -0.2233  0.3277  0.4338  -1.5273   0.0000   0.4238
  -6.400   1.2605   0.09846   0.09385  -0.2231  0.3217  0.4393  -1.5598   0.0000   0.4204
  -6.200   1.2817   0.09917   0.09454  -0.2230  0.3159  0.4459  -1.5931   0.0000   0.4171
  -6.000   1.3020   0.09981   0.09514  -0.2228  0.3094  0.4518  -1.6268   0.0000   0.4139
  -5.800   1.3219   0.10041   0.09571  -0.2226  0.3037  0.4561  -1.6606   0.0000   0.4108
  -5.600   1.3418   0.10100   0.09627  -0.2223  0.2997  0.4590  -1.6944   0.0000   0.4077
  -5.400   1.3599   0.10147   0.09673  -0.2217  0.2950  0.4629  -1.7267   0.0000   0.4048
  -5.200   1.3782   0.10196   0.09720  -0.2212  0.2899  0.4667  -1.7594   0.0000   0.4020
  -5.000   1.3964   0.10245   0.09765  -0.2207  0.2852  0.4699  -1.7920   0.0000   0.3992
  -4.800   1.4148   0.10294   0.09814  -0.2201  0.2827  0.4727  -1.8250   0.0000   0.3964
  -4.600   1.4331   0.10344   0.09863  -0.2196  0.2794  0.4755  -1.8591   0.0000   0.3938
  -4.400   1.4515   0.10396   0.09913  -0.2191  0.2755  0.4781  -1.8954   0.0000   0.3912
  -4.200   1.4699   0.10448   0.09961  -0.2186  0.2707  0.4800  -1.9318   0.0000   0.3886
  -4.000   1.4857   0.10480   0.09991  -0.2177  0.2664  0.4828  -1.9654   0.0000   0.3861
  -3.800   1.5022   0.10518   0.10029  -0.2170  0.2636  0.4855  -2.0000   0.0000   0.3837
  -3.600   1.5188   0.10556   0.10067  -0.2162  0.2602  0.4884  -2.0349   0.0000   0.3813
  -3.400   1.5355   0.10596   0.10106  -0.2154  0.2567  0.4914  -2.0700   0.0000   0.3789
  -3.200   1.5523   0.10638   0.10146  -0.2147  0.2532  0.4941  -2.1054   0.0000   0.3766
  -3.000   1.5692   0.10681   0.10186  -0.2140  0.2495  0.4965  -2.1411   0.0000   0.3744
  -2.800   1.5865   0.10726   0.10231  -0.2133  0.2476  0.4986  -2.1775   0.0000   0.3721
  -2.600   1.6041   0.10772   0.10277  -0.2127  0.2450  0.5005  -2.2145   0.0000   0.3699
  -2.400   1.6205   0.10811   0.10315  -0.2119  0.2415  0.5024  -2.2532   0.0000   0.3678
  -2.200   1.6353   0.10839   0.10341  -0.2109  0.2375  0.5050  -2.2899   0.0000   0.3657
  -2.000   1.6503   0.10870   0.10369  -0.2100  0.2331  0.5078  -2.3271   0.0000   0.3636
  -1.800   1.6658   0.10901   0.10401  -0.2090  0.2310  0.5105  -2.3650   0.0000   0.3615
  -1.600   1.6817   0.10935   0.10436  -0.2082  0.2287  0.5131  -2.4036   0.0000   0.3595
  -1.400   1.6978   0.10973   0.10473  -0.2074  0.2260  0.5155  -2.4427   0.0000   0.3575
  -1.200   1.7141   0.11014   0.10514  -0.2066  0.2230  0.5178  -2.4824   0.0000   0.3556
  -1.000   1.7305   0.11059   0.10556  -0.2058  0.2194  0.5200  -2.5237   0.0000   0.3537
  -0.800   1.7469   0.11103   0.10598  -0.2051  0.2161  0.5218  -2.5655   0.0000   0.3518
  -0.600   1.7630   0.11141   0.10637  -0.2043  0.2137  0.5235  -2.6099   0.0000   0.3499
  -0.400   1.7764   0.11161   0.10657  -0.2031  0.2108  0.5259  -2.6508   0.0000   0.3480
  -0.200   1.7899   0.11185   0.10680  -0.2019  0.2074  0.5284  -2.6922   0.0000   0.3462
   0.000   1.8033   0.11211   0.10705  -0.2008  0.2036  0.5309  -2.7335   0.0000   0.3444
   0.200   1.8173   0.11239   0.10733  -0.1997  0.2009  0.5332  -2.7758   0.0000   0.3426
   0.400   1.8318   0.11270   0.10764  -0.1987  0.1989  0.5355  -2.8191   0.0000   0.3408
   0.600   1.8465   0.11303   0.10799  -0.1977  0.1966  0.5377  -2.8629   0.0000   0.3391
   0.800   1.8612   0.11342   0.10837  -0.1967  0.1936  0.5398  -2.9070   0.0000   0.3373
   1.000   1.8759   0.11386   0.10879  -0.1958  0.1897  0.5418  -2.9559   0.0000   0.3357
   1.200   1.8910   0.11433   0.10924  -0.1949  0.1862  0.5436  -3.0064   0.0000   0.3340
   1.400   1.9052   0.11470   0.10961  -0.1939  0.1834  0.5454  -3.0556   0.0000   0.3323
   1.600   1.9166   0.11489   0.10981  -0.1925  0.1806  0.5476  -3.1001   0.0000   0.3306
   1.800   1.9276   0.11517   0.11009  -0.1911  0.1777  0.5497  -3.1462   0.0000   0.3290
   2.000   1.9383   0.11550   0.11041  -0.1897  0.1744  0.5517  -3.1935   0.0000   0.3273
   2.200   1.9497   0.11584   0.11076  -0.1884  0.1719  0.5536  -3.2423   0.0000   0.3257
   2.400   1.9615   0.11620   0.11113  -0.1871  0.1692  0.5555  -3.2921   0.0000   0.3241
   2.600   1.9735   0.11659   0.11153  -0.1859  0.1661  0.5575  -3.3427   0.0000   0.3225
   2.800   1.9855   0.11705   0.11196  -0.1847  0.1626  0.5595  -3.4005   0.0000   0.3209
   3.000   1.9984   0.11754   0.11244  -0.1837  0.1594  0.5615  -3.4609   0.0000   0.3194
   3.200   2.0125   0.11809   0.11300  -0.1827  0.1560  0.5638  -3.5241   0.0000   0.3179
   3.400   2.0265   0.11872   0.11361  -0.1819  0.1521  0.5658  -3.5876   0.0000   0.3164
   3.600   2.0359   0.11907   0.11394  -0.1804  0.1484  0.5676  -3.6437   0.0000   0.3148
   3.800   2.0454   0.11930   0.11420  -0.1789  0.1459  0.5692  -3.7038   0.0000   0.3133
   4.000   2.0545   0.11959   0.11449  -0.1774  0.1427  0.5707  -3.7636   0.0000   0.3118
   4.200   2.0631   0.11994   0.11484  -0.1758  0.1393  0.5721  -3.8237   0.0000   0.3102
   4.400   2.0709   0.12042   0.11531  -0.1743  0.1363  0.5735  -3.8855   0.0000   0.3087
   4.600   2.0794   0.12088   0.11580  -0.1728  0.1337  0.5749  -3.9495   0.0000   0.3072
   4.800   2.0877   0.12140   0.11632  -0.1713  0.1301  0.5765  -4.0154   0.0000   0.3057
   5.000   2.0957   0.12199   0.11689  -0.1699  0.1263  0.5781  -4.0810   0.0000   0.3043
   5.200   2.1058   0.12253   0.11744  -0.1686  0.1234  0.5801  -4.1521   0.0000   0.3029
   5.400   2.1160   0.12318   0.11809  -0.1675  0.1199  0.5825  -4.2267   0.0000   0.3015
   5.600   2.1257   0.12394   0.11883  -0.1663  0.1164  0.5847  -4.3056   0.0000   0.3001
   5.800   2.1371   0.12469   0.11958  -0.1654  0.1136  0.5866  -4.3900   0.0000   0.2987
   6.000   2.1448   0.12547   0.12037  -0.1640  0.1101  0.5880  -4.4642   0.0000   0.2973
   6.200   2.1482   0.12619   0.12108  -0.1623  0.1064  0.5891  -4.5267   0.0000   0.2959
   6.400   2.1537   0.12673   0.12164  -0.1607  0.1036  0.5902  -4.5958   0.0000   0.2945
   6.600   2.1586   0.12731   0.12223  -0.1591  0.1003  0.5913  -4.6674   0.0000   0.2931
   6.800   2.1628   0.12797   0.12289  -0.1575  0.0973  0.5923  -4.7372   0.0000   0.2917
   7.000   2.1674   0.12863   0.12357  -0.1560  0.0948  0.5933  -4.8090   0.0000   0.2903
   7.200   2.1704   0.12947   0.12442  -0.1544  0.0916  0.5944  -4.8760   0.0000   0.2890
   7.400   2.1732   0.13030   0.12526  -0.1529  0.0887  0.5955  -4.9429   0.0000   0.2876
   7.600   2.1777   0.13100   0.12598  -0.1514  0.0860  0.5968  -5.0149   0.0000   0.2863
   7.800   2.1802   0.13199   0.12698  -0.1500  0.0831  0.5982  -5.0818   0.0000   0.2850
   8.000   2.1829   0.13306   0.12806  -0.1487  0.0806  0.5997  -5.1493   0.0000   0.2837
   8.200   2.1873   0.13399   0.12901  -0.1475  0.0781  0.6012  -5.2225   0.0000   0.2825
   8.400   2.1897   0.13520   0.13023  -0.1464  0.0753  0.6027  -5.2898   0.0000   0.2813
   8.600   2.1928   0.13643   0.13148  -0.1453  0.0729  0.6044  -5.3595   0.0000   0.2801
   8.800   2.1966   0.13772   0.13279  -0.1445  0.0700  0.6062  -5.4320   0.0000   0.2790
   9.000   2.1994   0.13934   0.13441  -0.1438  0.0671  0.6080  -5.5020   0.0000   0.2779
   9.200   2.2014   0.14060   0.13570  -0.1429  0.0648  0.6091  -5.5684   0.0000   0.2768
   9.400   2.1999   0.14182   0.13694  -0.1418  0.0627  0.6099  -5.6229   0.0000   0.2757
   9.600   2.1980   0.14309   0.13825  -0.1407  0.0609  0.6106  -5.6757   0.0000   0.2746
   9.800   2.1975   0.14420   0.13939  -0.1398  0.0593  0.6113  -5.7331   0.0000   0.2736
  10.000   2.1954   0.14549   0.14073  -0.1389  0.0576  0.6120  -5.7874   0.0000   0.2726
  10.200   2.1929   0.14681   0.14207  -0.1381  0.0559  0.6127  -5.8419   0.0000   0.2716
  10.400   2.1905   0.14815   0.14346  -0.1374  0.0546  0.6134  -5.8965   0.0000   0.2707
  10.600   2.1891   0.14938   0.14473  -0.1368  0.0530  0.6142  -5.9544   0.0000   0.2697
  10.800   2.1851   0.15093   0.14633  -0.1364  0.0514  0.6148  -6.0027   0.0000   0.2689
  11.000   2.1817   0.15242   0.14785  -0.1360  0.0499  0.6155  -6.0528   0.0000   0.2682
  11.200   2.1788   0.15392   0.14940  -0.1358  0.0485  0.6163  -6.1043   0.0000   0.2674
  11.400   2.1752   0.15551   0.15104  -0.1358  0.0469  0.6170  -6.1566   0.0000   0.2667
  11.600   2.1704   0.15725   0.15281  -0.1359  0.0454  0.6178  -6.2043   0.0000   0.2662
  11.800   2.1668   0.15889   0.15451  -0.1361  0.0442  0.6186  -6.2558   0.0000   0.2656
  12.000   2.1637   0.16046   0.15613  -0.1363  0.0428  0.6195  -6.3096   0.0000   0.2650
  12.200   2.1579   0.16239   0.15810  -0.1369  0.0415  0.6205  -6.3513   0.0000   0.2646
  12.400   2.1535   0.16419   0.15994  -0.1375  0.0403  0.6215  -6.3979   0.0000   0.2642
  12.600   2.1500   0.16593   0.16174  -0.1382  0.0393  0.6227  -6.4483   0.0000   0.2638
  12.800   2.1454   0.16787   0.16373  -0.1392  0.0382  0.6240  -6.4930   0.0000   0.2636
  13.000   2.1416   0.16988   0.16578  -0.1403  0.0370  0.6258  -6.5409   0.0000   0.2634
  13.200   2.1396   0.17231   0.16826  -0.1422  0.0360  0.6288  -6.5959   0.0000   0.2634
  13.400   2.1356   0.17418   0.17019  -0.1433  0.0351  0.6299  -6.6413   0.0000   0.2632
  13.600   2.1288   0.17604   0.17210  -0.1444  0.0342  0.6304  -6.6736   0.0000   0.2630
  13.800   2.1207   0.17808   0.17420  -0.1459  0.0334  0.6309  -6.6985   0.0000   0.2631
  14.000   2.1136   0.18000   0.17618  -0.1472  0.0326  0.6313  -6.7274   0.0000   0.2630
  14.200   2.1065   0.18195   0.17819  -0.1487  0.0320  0.6317  -6.7554   0.0000   0.2631
  14.400   2.1004   0.18376   0.18006  -0.1500  0.0313  0.6321  -6.7879   0.0000   0.2630
  14.600   2.0929   0.18575   0.18212  -0.1517  0.0305  0.6325  -6.8124   0.0000   0.2631
  14.800   2.0845   0.18789   0.18431  -0.1535  0.0298  0.6329  -6.8309   0.0000   0.2634
  15.000   2.0768   0.18993   0.18640  -0.1553  0.0291  0.6332  -6.8526   0.0000   0.2635
  15.200   2.0690   0.19200   0.18854  -0.1573  0.0285  0.6336  -6.8725   0.0000   0.2638
  15.400   2.0632   0.19381   0.19040  -0.1589  0.0278  0.6340  -6.9025   0.0000   0.2638
  15.600   2.0550   0.19596   0.19260  -0.1610  0.0271  0.6344  -6.9184   0.0000   0.2642
  15.800   2.0481   0.19793   0.19462  -0.1629  0.0264  0.6348  -6.9410   0.0000   0.2644
  16.000   2.0389   0.20026   0.19701  -0.1654  0.0257  0.6352  -6.9484   0.0000   0.2649
  16.200   2.0337   0.20203   0.19882  -0.1671  0.0251  0.6358  -6.9787   0.0000   0.2651
  16.400   2.0270   0.20402   0.20087  -0.1692  0.0245  0.6363  -6.9992   0.0000   0.2654
  16.600   2.0206   0.20596   0.20286  -0.1713  0.0239  0.6368  -7.0209   0.0000   0.2657
  16.800   2.0150   0.20780   0.20473  -0.1733  0.0233  0.6374  -7.0465   0.0000   0.2659
  17.000   2.0065   0.21007   0.20705  -0.1759  0.0228  0.6379  -7.0530   0.0000   0.2665
  17.200   2.0021   0.21174   0.20877  -0.1778  0.0223  0.6386  -7.0843   0.0000   0.2666
  17.400   1.9967   0.21357   0.21065  -0.1798  0.0218  0.6393  -7.1085   0.0000   0.2668
  17.600   1.9914   0.21538   0.21251  -0.1820  0.0213  0.6401  -7.1323   0.0000   0.2671
  17.800   1.9874   0.21701   0.21418  -0.1838  0.0208  0.6410  -7.1644   0.0000   0.2672
  18.000   1.9806   0.21909   0.21631  -0.1864  0.0204  0.6420  -7.1766   0.0000   0.2678
  18.200   1.9757   0.22094   0.21819  -0.1887  0.0199  0.6432  -7.1999   0.0000   0.2681
  18.400   1.9734   0.22270   0.21999  -0.1907  0.0195  0.6450  -7.2389   0.0000   0.2682


