xflr5 v6.47

 Calculated polar for: NACA24018_theta30_Ku4.5_Kl0.5_d0.00_delta0.00

 1 1 Reynolds number fixed          Mach number fixed         

 xtrf =   1.000 (top)        1.000 (bottom)
 Mach =   0.000     Re =     2.600 e 6     Ncrit =   5.000

  alpha     CL        CD       CDp       Cm    Top Xtr Bot Xtr   Cpmin    Chinge    XCp    
 ------- -------- --------- --------- -------- ------- ------- -------- --------- ---------
 -15.000  -1.2985   0.01875   0.01380  -0.0527  1.0000  0.0203  -7.9028   0.0000   0.1874
 -14.800  -1.2830   0.01830   0.01334  -0.0521  0.9998  0.0204  -7.7626   0.0000   0.1876
 -14.600  -1.2637   0.01781   0.01284  -0.0524  0.9993  0.0207  -7.6093   0.0000   0.1871
 -14.400  -1.2442   0.01734   0.01236  -0.0526  0.9987  0.0211  -7.4565   0.0000   0.1866
 -14.200  -1.2243   0.01689   0.01191  -0.0528  0.9979  0.0214  -7.3025   0.0000   0.1860
 -14.000  -1.2042   0.01647   0.01149  -0.0531  0.9966  0.0217  -7.1492   0.0000   0.1854
 -13.800  -1.1862   0.01607   0.01108  -0.0528  0.9944  0.0220  -7.0044   0.0000   0.1852
 -13.600  -1.1679   0.01569   0.01070  -0.0525  0.9926  0.0223  -6.8597   0.0000   0.1850
 -13.400  -1.1486   0.01534   0.01033  -0.0524  0.9908  0.0225  -6.7126   0.0000   0.1846
 -13.200  -1.1283   0.01500   0.00999  -0.0525  0.9890  0.0228  -6.5630   0.0000   0.1839
 -12.800  -1.0902   0.01438   0.00935  -0.0520  0.9834  0.0232  -6.2763   0.0000   0.1833
 -12.600  -1.0693   0.01406   0.00902  -0.0521  0.9804  0.0235  -6.1309   0.0000   0.1825
 -12.400  -1.0473   0.01372   0.00869  -0.0524  0.9773  0.0239  -5.9858   0.0000   0.1814
 -12.200  -1.0241   0.01341   0.00837  -0.0530  0.9731  0.0244  -5.8376   0.0000   0.1799
 -12.000  -0.9971   0.01309   0.00806  -0.0542  0.9699  0.0249  -5.6788   0.0000   0.1774
 -11.800  -0.9698   0.01280   0.00777  -0.0556  0.9655  0.0254  -5.5205   0.0000   0.1746
 -11.600  -0.9383   0.01252   0.00748  -0.0578  0.9611  0.0258  -5.3509   0.0000   0.1705
 -11.400  -0.9021   0.01223   0.00719  -0.0609  0.9572  0.0262  -5.1687   0.0000   0.1646
 -11.200  -0.8624   0.01193   0.00689  -0.0648  0.9506  0.0267  -4.9790   0.0000   0.1569
 -11.000  -0.8227   0.01162   0.00657  -0.0688  0.9406  0.0275  -4.7922   0.0000   0.1484
 -10.800  -0.7897   0.01138   0.00629  -0.0713  0.9256  0.0281  -4.6274   0.0000   0.1418
 -10.600  -0.7677   0.01121   0.00607  -0.0714  0.9066  0.0286  -4.5007   0.0000   0.1392
 -10.400  -0.7524   0.01109   0.00587  -0.0700  0.8850  0.0291  -4.3945   0.0000   0.1392
 -10.200  -0.7396   0.01100   0.00569  -0.0682  0.8628  0.0295  -4.2960   0.0000   0.1404
 -10.000  -0.7283   0.01092   0.00552  -0.0659  0.8375  0.0298  -4.2023   0.0000   0.1423
  -9.800  -0.7171   0.01082   0.00534  -0.0637  0.8122  0.0304  -4.1101   0.0000   0.1442
  -9.600  -0.7055   0.01073   0.00518  -0.0615  0.7880  0.0310  -4.0174   0.0000   0.1461
  -9.400  -0.6934   0.01065   0.00502  -0.0594  0.7649  0.0316  -3.9241   0.0000   0.1478
  -9.200  -0.6802   0.01056   0.00486  -0.0575  0.7441  0.0321  -3.8285   0.0000   0.1491
  -9.000  -0.6668   0.01047   0.00472  -0.0557  0.7239  0.0326  -3.7331   0.0000   0.1503
  -8.800  -0.6530   0.01040   0.00457  -0.0539  0.7051  0.0331  -3.6376   0.0000   0.1514
  -8.600  -0.6384   0.01031   0.00444  -0.0523  0.6894  0.0335  -3.5409   0.0000   0.1523
  -8.400  -0.6243   0.01021   0.00430  -0.0506  0.6749  0.0343  -3.4501   0.0000   0.1534
  -8.200  -0.6101   0.01012   0.00417  -0.0489  0.6601  0.0350  -3.3600   0.0000   0.1544
  -8.000  -0.5958   0.01005   0.00406  -0.0472  0.6460  0.0359  -3.2703   0.0000   0.1556
  -7.800  -0.5814   0.00999   0.00396  -0.0454  0.6321  0.0366  -3.1813   0.0000   0.1567
  -7.600  -0.5664   0.00994   0.00387  -0.0438  0.6187  0.0372  -3.0917   0.0000   0.1576
  -7.400  -0.5505   0.00988   0.00377  -0.0425  0.6057  0.0380  -3.0009   0.0000   0.1580
  -7.200  -0.5338   0.00980   0.00367  -0.0412  0.5928  0.0390  -2.9094   0.0000   0.1580
  -7.000  -0.5169   0.00973   0.00356  -0.0400  0.5798  0.0399  -2.8181   0.0000   0.1579
  -6.800  -0.4995   0.00967   0.00347  -0.0389  0.5672  0.0408  -2.7268   0.0000   0.1575
  -6.600  -0.4817   0.00961   0.00338  -0.0379  0.5565  0.0417  -2.6356   0.0000   0.1568
  -6.400  -0.4640   0.00954   0.00328  -0.0369  0.5458  0.0431  -2.5457   0.0000   0.1561
  -6.200  -0.4460   0.00947   0.00319  -0.0359  0.5357  0.0445  -2.4599   0.0000   0.1551
  -6.000  -0.4279   0.00941   0.00311  -0.0349  0.5249  0.0457  -2.3747   0.0000   0.1540
  -5.800  -0.4096   0.00937   0.00303  -0.0340  0.5124  0.0467  -2.2903   0.0000   0.1526
  -5.600  -0.3919   0.00932   0.00295  -0.0330  0.4983  0.0485  -2.2080   0.0000   0.1515
  -5.400  -0.3738   0.00928   0.00288  -0.0320  0.4844  0.0502  -2.1259   0.0000   0.1501
  -5.200  -0.3551   0.00925   0.00281  -0.0311  0.4721  0.0516  -2.0436   0.0000   0.1479
  -5.000  -0.3363   0.00920   0.00274  -0.0303  0.4621  0.0532  -1.9653   0.0000   0.1455
  -4.800  -0.3176   0.00915   0.00267  -0.0295  0.4528  0.0551  -1.8884   0.0000   0.1427
  -4.600  -0.2985   0.00911   0.00261  -0.0287  0.4433  0.0569  -1.8119   0.0000   0.1393
  -4.400  -0.2793   0.00906   0.00255  -0.0279  0.4346  0.0592  -1.7380   0.0000   0.1353
  -4.200  -0.2605   0.00902   0.00249  -0.0271  0.4249  0.0617  -1.6670   0.0000   0.1311
  -4.000  -0.2412   0.00900   0.00244  -0.0263  0.4145  0.0636  -1.5963   0.0000   0.1257
  -3.800  -0.2220   0.00896   0.00239  -0.0256  0.4048  0.0663  -1.5266   0.0000   0.1194
  -3.600  -0.2029   0.00893   0.00234  -0.0248  0.3956  0.0691  -1.4579   0.0000   0.1119
  -3.400  -0.1833   0.00890   0.00229  -0.0241  0.3871  0.0720  -1.3894   0.0000   0.1023
  -3.200  -0.1641   0.00886   0.00225  -0.0234  0.3789  0.0758  -1.3249   0.0000   0.0909
  -2.800  -0.1253   0.00880   0.00217  -0.0219  0.3622  0.0840  -1.1989   0.0000   0.0565
  -2.600  -0.1059   0.00879   0.00214  -0.0212  0.3545  0.0884  -1.1371   0.0000   0.0297
  -2.400  -0.0861   0.00874   0.00210  -0.0206  0.3491  0.0939  -1.0756   0.0000  -0.0109
  -2.200  -0.0667   0.00871   0.00207  -0.0199  0.3421  0.0997  -1.0183   0.0000  -0.0728
  -2.000  -0.0469   0.00867   0.00204  -0.0193  0.3364  0.1060  -0.9612   0.0000  -0.1912
  -1.800  -0.0275   0.00864   0.00201  -0.0185  0.3297  0.1139  -0.9058   0.0000  -0.4671
  -1.600  -0.0081   0.00859   0.00198  -0.0178  0.3245  0.1233  -0.8534   0.0000  -2.0815
  -1.400   0.0116   0.00854   0.00195  -0.0172  0.3202  0.1339  -0.8015   0.0000   1.8022
  -1.200   0.0308   0.00850   0.00193  -0.0164  0.3150  0.1456  -0.7809   0.0000   0.8017
  -1.000   0.0499   0.00843   0.00190  -0.0157  0.3106  0.1615  -0.8027   0.0000   0.5713
  -0.800   0.0683   0.00832   0.00186  -0.0148  0.3065  0.1867  -0.8246   0.0000   0.4687
  -0.600   0.0852   0.00817   0.00182  -0.0136  0.3021  0.2247  -0.8461   0.0000   0.4092
  -0.400   0.0999   0.00793   0.00175  -0.0120  0.2983  0.2828  -0.8664   0.0000   0.3679
  -0.200   0.1155   0.00770   0.00170  -0.0106  0.2961  0.3380  -0.8873   0.0000   0.3380
   0.000   0.1327   0.00755   0.00167  -0.0095  0.2931  0.3770  -0.9094   0.0000   0.3165
   0.200   0.1508   0.00747   0.00166  -0.0086  0.2892  0.4040  -0.9322   0.0000   0.3008
   0.400   0.1691   0.00741   0.00166  -0.0076  0.2847  0.4280  -0.9557   0.0000   0.2885
   0.600   0.1878   0.00734   0.00166  -0.0068  0.2823  0.4534  -0.9803   0.0000   0.2790
   0.800   0.2071   0.00729   0.00166  -0.0061  0.2796  0.4728  -1.0053   0.0000   0.2717
   1.000   0.2264   0.00726   0.00167  -0.0053  0.2766  0.4910  -1.0305   0.0000   0.2656
   1.200   0.2451   0.00723   0.00169  -0.0045  0.2730  0.5115  -1.0553   0.0000   0.2601
   1.400   0.2637   0.00718   0.00170  -0.0036  0.2701  0.5349  -1.0802   0.0000   0.2552
   1.600   0.2826   0.00713   0.00171  -0.0028  0.2676  0.5573  -1.1054   0.0000   0.2511
   1.800   0.3010   0.00709   0.00173  -0.0019  0.2646  0.5815  -1.1306   0.0000   0.2472
   2.000   0.3191   0.00706   0.00176  -0.0010  0.2613  0.6045  -1.1566   0.0000   0.2435
   2.200   0.3381   0.00707   0.00179  -0.0002  0.2576  0.6196  -1.1834   0.0000   0.2408
   2.400   0.3586   0.00709   0.00182   0.0003  0.2556  0.6278  -1.2119   0.0000   0.2393
   2.600   0.3786   0.00710   0.00185   0.0009  0.2530  0.6360  -1.2410   0.0000   0.2376
   2.800   0.3986   0.00714   0.00188   0.0014  0.2503  0.6442  -1.2704   0.0000   0.2361
   3.000   0.4180   0.00717   0.00192   0.0021  0.2473  0.6539  -1.2993   0.0000   0.2344
   3.200   0.4374   0.00719   0.00196   0.0028  0.2442  0.6636  -1.3284   0.0000   0.2329
   3.400   0.4572   0.00721   0.00200   0.0034  0.2423  0.6740  -1.3579   0.0000   0.2317
   3.600   0.4765   0.00723   0.00204   0.0041  0.2397  0.6850  -1.3883   0.0000   0.2303
   3.800   0.4955   0.00726   0.00209   0.0049  0.2368  0.6947  -1.4189   0.0000   0.2289
   4.000   0.5145   0.00731   0.00214   0.0056  0.2339  0.7042  -1.4496   0.0000   0.2277
   4.200   0.5333   0.00735   0.00219   0.0064  0.2312  0.7147  -1.4803   0.0000   0.2264
   4.400   0.5521   0.00736   0.00224   0.0072  0.2294  0.7258  -1.5111   0.0000   0.2251
   4.600   0.5707   0.00739   0.00229   0.0081  0.2269  0.7372  -1.5419   0.0000   0.2239
   4.800   0.5889   0.00744   0.00235   0.0090  0.2241  0.7485  -1.5736   0.0000   0.2226
   5.000   0.6066   0.00748   0.00241   0.0100  0.2213  0.7595  -1.6053   0.0000   0.2212
   5.200   0.6241   0.00752   0.00248   0.0110  0.2187  0.7705  -1.6370   0.0000   0.2197
   5.400   0.6412   0.00754   0.00253   0.0122  0.2173  0.7815  -1.6685   0.0000   0.2182
   5.600   0.6577   0.00757   0.00258   0.0135  0.2151  0.7927  -1.6996   0.0000   0.2166
   5.800   0.6732   0.00761   0.00264   0.0149  0.2123  0.8048  -1.7298   0.0000   0.2146
   6.000   0.6882   0.00766   0.00272   0.0165  0.2091  0.8173  -1.7599   0.0000   0.2126
   6.200   0.7037   0.00772   0.00280   0.0179  0.2062  0.8292  -1.7930   0.0000   0.2108
   6.400   0.7197   0.00776   0.00288   0.0193  0.2046  0.8417  -1.8273   0.0000   0.2093
   6.600   0.7355   0.00781   0.00296   0.0207  0.2028  0.8547  -1.8614   0.0000   0.2077
   6.800   0.7510   0.00786   0.00305   0.0221  0.2006  0.8683  -1.8955   0.0000   0.2062
   7.000   0.7665   0.00793   0.00315   0.0235  0.1981  0.8823  -1.9295   0.0000   0.2047
   7.200   0.7822   0.00802   0.00326   0.0249  0.1949  0.8957  -1.9639   0.0000   0.2033
   7.400   0.7999   0.00808   0.00337   0.0258  0.1931  0.9084  -2.0005   0.0000   0.2026
   7.800   0.8420   0.00826   0.00360   0.0261  0.1880  0.9325  -2.0838   0.0000   0.2035
   8.000   0.8688   0.00841   0.00376   0.0249  0.1844  0.9421  -2.1340   0.0000   0.2056
   8.200   0.8992   0.00856   0.00390   0.0230  0.1817  0.9492  -2.1892   0.0000   0.2085
   8.400   0.9310   0.00870   0.00405   0.0208  0.1796  0.9548  -2.2464   0.0000   0.2116
   8.600   0.9621   0.00886   0.00420   0.0187  0.1764  0.9590  -2.3034   0.0000   0.2144
   8.800   0.9947   0.00907   0.00438   0.0162  0.1726  0.9617  -2.3649   0.0000   0.2173
   9.000   1.0265   0.00924   0.00455   0.0139  0.1699  0.9644  -2.4260   0.0000   0.2198
   9.200   1.0543   0.00940   0.00470   0.0125  0.1670  0.9681  -2.4827   0.0000   0.2213
   9.400   1.0823   0.00962   0.00489   0.0110  0.1627  0.9703  -2.5399   0.0000   0.2228
   9.600   1.1085   0.00984   0.00509   0.0098  0.1590  0.9727  -2.5999   0.0000   0.2238
   9.800   1.1327   0.01000   0.00525   0.0092  0.1568  0.9755  -2.6604   0.0000   0.2243
  10.000   1.1541   0.01019   0.00542   0.0091  0.1539  0.9787  -2.7174   0.0000   0.2242
  10.200   1.1774   0.01044   0.00565   0.0085  0.1498  0.9804  -2.7772   0.0000   0.2246
  10.400   1.1994   0.01064   0.00584   0.0082  0.1468  0.9827  -2.8358   0.0000   0.2247
  10.600   1.2182   0.01086   0.00605   0.0086  0.1435  0.9861  -2.8971   0.0000   0.2242
  10.800   1.2384   0.01113   0.00629   0.0086  0.1397  0.9880  -2.9610   0.0000   0.2240
  11.000   1.2611   0.01135   0.00651   0.0081  0.1372  0.9893  -3.0292   0.0000   0.2242
  11.200   1.2834   0.01156   0.00671   0.0078  0.1353  0.9906  -3.0974   0.0000   0.2243
  11.400   1.3044   0.01179   0.00694   0.0076  0.1327  0.9921  -3.1640   0.0000   0.2242
  11.600   1.3233   0.01210   0.00723   0.0077  0.1290  0.9938  -3.2274   0.0000   0.2238
  11.800   1.3420   0.01238   0.00750   0.0080  0.1257  0.9953  -3.2911   0.0000   0.2234
  12.000   1.3620   0.01271   0.00780   0.0078  0.1214  0.9968  -3.3649   0.0000   0.2233
  12.200   1.3822   0.01307   0.00814   0.0076  0.1172  0.9979  -3.4421   0.0000   0.2232
  12.400   1.4036   0.01335   0.00842   0.0072  0.1146  0.9987  -3.5226   0.0000   0.2232
  12.600   1.4235   0.01372   0.00877   0.0069  0.1110  0.9993  -3.6007   0.0000   0.2231
  12.800   1.4431   0.01410   0.00913   0.0067  0.1075  0.9998  -3.6815   0.0000   0.2230
  13.000   1.4577   0.01443   0.00947   0.0075  0.1047  1.0000  -3.7577   0.0000   0.2221
  13.200   1.4639   0.01483   0.00985   0.0099  0.1016  1.0000  -3.8169   0.0000   0.2201
  13.400   1.4708   0.01525   0.01026   0.0121  0.0986  1.0000  -3.8776   0.0000   0.2183
  13.600   1.4797   0.01561   0.01064   0.0139  0.0965  1.0000  -3.9434   0.0000   0.2167
  13.800   1.4874   0.01606   0.01108   0.0158  0.0937  1.0000  -4.0074   0.0000   0.2151
  14.000   1.4938   0.01660   0.01161   0.0178  0.0907  1.0000  -4.0698   0.0000   0.2134
  14.200   1.5030   0.01706   0.01208   0.0193  0.0888  1.0000  -4.1392   0.0000   0.2121
  14.400   1.5113   0.01758   0.01260   0.0209  0.0864  1.0000  -4.2066   0.0000   0.2107
  14.600   1.5172   0.01824   0.01326   0.0227  0.0835  1.0000  -4.2696   0.0000   0.2092
  14.800   1.5251   0.01884   0.01387   0.0241  0.0813  1.0000  -4.3388   0.0000   0.2079
  15.000   1.5329   0.01948   0.01451   0.0255  0.0790  1.0000  -4.4081   0.0000   0.2066
  15.200   1.5385   0.02027   0.01530   0.0270  0.0764  1.0000  -4.4717   0.0000   0.2053
  15.400   1.5450   0.02106   0.01610   0.0283  0.0740  1.0000  -4.5393   0.0000   0.2041
  15.600   1.5521   0.02185   0.01690   0.0295  0.0719  1.0000  -4.6096   0.0000   0.2030
  15.800   1.5567   0.02282   0.01788   0.0307  0.0694  1.0000  -4.6730   0.0000   0.2018
  16.000   1.5615   0.02383   0.01889   0.0318  0.0672  1.0000  -4.7372   0.0000   0.2006
  16.200   1.5676   0.02480   0.01989   0.0327  0.0654  1.0000  -4.8061   0.0000   0.1997
  16.400   1.5715   0.02596   0.02106   0.0337  0.0633  1.0000  -4.8701   0.0000   0.1986
  16.600   1.5739   0.02728   0.02239   0.0346  0.0611  1.0000  -4.9304   0.0000   0.1976
  16.800   1.5792   0.02844   0.02357   0.0353  0.0598  1.0000  -5.0006   0.0000   0.1968
  17.000   1.5827   0.02977   0.02493   0.0359  0.0581  1.0000  -5.0657   0.0000   0.1959
  17.200   1.5837   0.03136   0.02654   0.0365  0.0563  1.0000  -5.1224   0.0000   0.1950
  17.400   1.5849   0.03297   0.02818   0.0370  0.0547  1.0000  -5.1799   0.0000   0.1942
  17.600   1.5873   0.03455   0.02979   0.0373  0.0533  1.0000  -5.2431   0.0000   0.1935
  17.800   1.5875   0.03637   0.03164   0.0376  0.0518  1.0000  -5.2989   0.0000   0.1928
  18.000   1.5848   0.03851   0.03381   0.0378  0.0503  1.0000  -5.3446   0.0000   0.1921
  18.200   1.5832   0.04059   0.03593   0.0379  0.0490  1.0000  -5.3940   0.0000   0.1914
  18.400   1.5822   0.04269   0.03806   0.0379  0.0479  1.0000  -5.4447   0.0000   0.1909
  18.600   1.5792   0.04501   0.04043   0.0378  0.0468  1.0000  -5.4886   0.0000   0.1903
  18.800   1.5738   0.04764   0.04310   0.0376  0.0457  1.0000  -5.5230   0.0000   0.1898
  19.000   1.5667   0.05050   0.04601   0.0373  0.0446  1.0000  -5.5510   0.0000   0.1893
  19.200   1.5617   0.05321   0.04877   0.0369  0.0439  1.0000  -5.5858   0.0000   0.1889
  19.400   1.5558   0.05602   0.05164   0.0364  0.0432  1.0000  -5.6170   0.0000   0.1886
  19.600   1.5482   0.05908   0.05475   0.0358  0.0424  1.0000  -5.6411   0.0000   0.1882
  19.800   1.5381   0.06249   0.05822   0.0350  0.0416  1.0000  -5.6551   0.0000   0.1879
  20.000   1.5256   0.06624   0.06203   0.0341  0.0408  1.0000  -5.6589   0.0000   0.1877
  20.200   1.5121   0.07013   0.06598   0.0331  0.0401  1.0000  -5.6581   0.0000   0.1875
  20.400   1.5004   0.07389   0.06981   0.0321  0.0395  1.0000  -5.6624   0.0000   0.1874
  20.600   1.4892   0.07761   0.07360   0.0310  0.0390  1.0000  -5.6683   0.0000   0.1874
  20.800   1.4769   0.08151   0.07756   0.0298  0.0384  1.0000  -5.6684   0.0000   0.1874
  21.000   1.4634   0.08562   0.08174   0.0285  0.0378  1.0000  -5.6625   0.0000   0.1875
  21.200   1.4489   0.08991   0.08609   0.0271  0.0371  1.0000  -5.6514   0.0000   0.1877
  21.400   1.4334   0.09435   0.09060   0.0255  0.0365  1.0000  -5.6347   0.0000   0.1879
  21.600   1.4176   0.09891   0.09522   0.0239  0.0359  1.0000  -5.6148   0.0000   0.1882
  21.800   1.4030   0.10337   0.09974   0.0222  0.0353  1.0000  -5.5986   0.0000   0.1886
  22.000   1.3920   0.10733   0.10376   0.0206  0.0348  1.0000  -5.5978   0.0000   0.1890
  22.200   1.3821   0.11116   0.10764   0.0191  0.0343  1.0000  -5.6007   0.0000   0.1894
  22.400   1.3696   0.11544   0.11197   0.0172  0.0337  1.0000  -5.5902   0.0000   0.1900
  22.600   1.3593   0.11943   0.11602   0.0155  0.0331  1.0000  -5.5878   0.0000   0.1906
  22.800   1.3489   0.12344   0.12007   0.0136  0.0325  1.0000  -5.5839   0.0000   0.1913
  23.000   1.3365   0.12776   0.12445   0.0116  0.0318  1.0000  -5.5692   0.0000   0.1921
  23.200   1.3306   0.13116   0.12788   0.0099  0.0312  1.0000  -5.5836   0.0000   0.1927
  23.400   1.3219   0.13503   0.13181   0.0079  0.0308  1.0000  -5.5842   0.0000   0.1935
  23.600   1.3176   0.13825   0.13506   0.0062  0.0302  1.0000  -5.6055   0.0000   0.1942
  23.800   1.3085   0.14220   0.13905   0.0041  0.0296  1.0000  -5.6020   0.0000   0.1951
  24.000   1.3035   0.14553   0.14241   0.0022  0.0289  1.0000  -5.6181   0.0000   0.1959
  24.200   1.2946   0.14950   0.14643  -0.0000  0.0283  1.0000  -5.6136   0.0000   0.1970
  24.400   1.2911   0.15263   0.14959  -0.0019  0.0278  1.0000  -5.6365   0.0000   0.1979
  24.600   1.2891   0.15554   0.15253  -0.0037  0.0273  1.0000  -5.6667   0.0000   0.1986
  24.800   1.2832   0.15910   0.15614  -0.0059  0.0268  1.0000  -5.6742   0.0000   0.1997
  25.000   1.2813   0.16201   0.15907  -0.0078  0.0262  1.0000  -5.7030   0.0000   0.2006


