xflr5 v6.47

 Calculated polar for: NACA24018_theta30_Ku4.5_Kl0.5_d0.00_delta0.00

 1 1 Reynolds number fixed          Mach number fixed         

 xtrf =   1.000 (top)        1.000 (bottom)
 Mach =   0.000     Re =     1.200 e 6     Ncrit =   5.000

  alpha     CL        CD       CDp       Cm    Top Xtr Bot Xtr   Cpmin    Chinge    XCp    
 ------- -------- --------- --------- -------- ------- ------- -------- --------- ---------
 -15.000  -1.2033   0.02393   0.01852  -0.0626  1.0000  0.0240  -7.4586   0.0000   0.1752
 -14.800  -1.1963   0.02325   0.01782  -0.0611  1.0000  0.0242  -7.3572   0.0000   0.1766
 -14.600  -1.1893   0.02262   0.01717  -0.0594  1.0000  0.0244  -7.2556   0.0000   0.1781
 -14.400  -1.1823   0.02204   0.01657  -0.0577  1.0000  0.0246  -7.1540   0.0000   0.1796
 -14.200  -1.1753   0.02149   0.01600  -0.0558  1.0000  0.0249  -7.0528   0.0000   0.1812
 -14.000  -1.1685   0.02098   0.01547  -0.0538  1.0000  0.0251  -6.9524   0.0000   0.1830
 -13.800  -1.1621   0.02051   0.01497  -0.0517  1.0000  0.0254  -6.8536   0.0000   0.1849
 -13.600  -1.1561   0.02007   0.01450  -0.0494  1.0000  0.0256  -6.7568   0.0000   0.1870
 -13.400  -1.1432   0.01962   0.01403  -0.0484  0.9997  0.0259  -6.6353   0.0000   0.1877
 -13.200  -1.1220   0.01915   0.01355  -0.0489  0.9988  0.0262  -6.4852   0.0000   0.1867
 -13.000  -1.1009   0.01868   0.01305  -0.0494  0.9975  0.0265  -6.3369   0.0000   0.1857
 -12.800  -1.0804   0.01818   0.01255  -0.0498  0.9956  0.0270  -6.1921   0.0000   0.1847
 -12.600  -1.0612   0.01772   0.01208  -0.0498  0.9935  0.0274  -6.0546   0.0000   0.1841
 -12.400  -1.0413   0.01730   0.01165  -0.0500  0.9914  0.0278  -5.9184   0.0000   0.1833
 -12.200  -1.0202   0.01690   0.01125  -0.0503  0.9893  0.0282  -5.7796   0.0000   0.1823
 -12.000  -0.9982   0.01652   0.01085  -0.0507  0.9877  0.0287  -5.6389   0.0000   0.1809
 -11.800  -0.9799   0.01616   0.01048  -0.0503  0.9840  0.0291  -5.5111   0.0000   0.1806
 -11.600  -0.9589   0.01581   0.01012  -0.0505  0.9809  0.0295  -5.3762   0.0000   0.1795
 -11.400  -0.9363   0.01547   0.00976  -0.0509  0.9787  0.0298  -5.2377   0.0000   0.1780
 -11.200  -0.9181   0.01511   0.00940  -0.0505  0.9736  0.0304  -5.1138   0.0000   0.1776
 -11.000  -0.8946   0.01476   0.00905  -0.0511  0.9706  0.0310  -4.9743   0.0000   0.1756
 -10.800  -0.8710   0.01443   0.00873  -0.0517  0.9670  0.0317  -4.8361   0.0000   0.1735
 -10.600  -0.8457   0.01412   0.00841  -0.0526  0.9627  0.0323  -4.6941   0.0000   0.1708
 -10.400  -0.8158   0.01380   0.00808  -0.0544  0.9596  0.0330  -4.5420   0.0000   0.1663
 -10.200  -0.7849   0.01350   0.00777  -0.0564  0.9549  0.0335  -4.3932   0.0000   0.1611
 -10.000  -0.7521   0.01314   0.00742  -0.0589  0.9493  0.0344  -4.2413   0.0000   0.1547
  -9.800  -0.7200   0.01283   0.00710  -0.0612  0.9419  0.0352  -4.0931   0.0000   0.1480
  -9.600  -0.6878   0.01254   0.00680  -0.0635  0.9331  0.0361  -3.9462   0.0000   0.1406
  -9.400  -0.6583   0.01230   0.00652  -0.0652  0.9212  0.0370  -3.8086   0.0000   0.1338
  -9.200  -0.6339   0.01210   0.00626  -0.0658  0.9048  0.0378  -3.6861   0.0000   0.1291
  -9.000  -0.6148   0.01192   0.00601  -0.0652  0.8837  0.0387  -3.5783   0.0000   0.1269
  -8.800  -0.5997   0.01179   0.00580  -0.0638  0.8609  0.0395  -3.4815   0.0000   0.1267
  -8.600  -0.5867   0.01169   0.00561  -0.0619  0.8378  0.0403  -3.3946   0.0000   0.1278
  -8.400  -0.5739   0.01159   0.00543  -0.0599  0.8154  0.0411  -3.3091   0.0000   0.1291
  -8.200  -0.5612   0.01151   0.00526  -0.0579  0.7949  0.0417  -3.2247   0.0000   0.1305
  -8.000  -0.5486   0.01140   0.00509  -0.0559  0.7762  0.0426  -3.1412   0.0000   0.1319
  -7.800  -0.5356   0.01129   0.00493  -0.0540  0.7587  0.0436  -3.0572   0.0000   0.1332
  -7.600  -0.5222   0.01120   0.00478  -0.0521  0.7424  0.0447  -2.9731   0.0000   0.1344
  -7.400  -0.5085   0.01112   0.00464  -0.0503  0.7264  0.0458  -2.8891   0.0000   0.1354
  -7.200  -0.4947   0.01106   0.00452  -0.0484  0.7106  0.0467  -2.8058   0.0000   0.1365
  -7.000  -0.4813   0.01098   0.00441  -0.0466  0.6956  0.0479  -2.7243   0.0000   0.1378
  -6.800  -0.4673   0.01092   0.00430  -0.0448  0.6808  0.0492  -2.6419   0.0000   0.1388
  -6.600  -0.4519   0.01085   0.00418  -0.0433  0.6662  0.0506  -2.5575   0.0000   0.1390
  -6.400  -0.4356   0.01079   0.00407  -0.0420  0.6521  0.0519  -2.4752   0.0000   0.1384
  -6.200  -0.4196   0.01071   0.00395  -0.0406  0.6380  0.0536  -2.3949   0.0000   0.1381
  -6.000  -0.4032   0.01064   0.00385  -0.0393  0.6238  0.0552  -2.3144   0.0000   0.1373
  -5.800  -0.3862   0.01059   0.00375  -0.0382  0.6102  0.0568  -2.2338   0.0000   0.1361
  -5.600  -0.3691   0.01052   0.00364  -0.0370  0.5977  0.0585  -2.1538   0.0000   0.1347
  -5.400  -0.3520   0.01045   0.00355  -0.0359  0.5859  0.0607  -2.0747   0.0000   0.1330
  -5.200  -0.3344   0.01039   0.00346  -0.0348  0.5737  0.0629  -1.9972   0.0000   0.1308
  -5.000  -0.3167   0.01034   0.00337  -0.0338  0.5611  0.0650  -1.9224   0.0000   0.1282
  -4.800  -0.2992   0.01028   0.00328  -0.0327  0.5478  0.0675  -1.8487   0.0000   0.1255
  -4.600  -0.2814   0.01025   0.00320  -0.0317  0.5336  0.0700  -1.7753   0.0000   0.1221
  -4.400  -0.2638   0.01020   0.00312  -0.0306  0.5198  0.0728  -1.7054   0.0000   0.1184
  -4.200  -0.2459   0.01016   0.00305  -0.0296  0.5072  0.0763  -1.6369   0.0000   0.1138
  -4.000  -0.2277   0.01012   0.00298  -0.0287  0.4954  0.0795  -1.5686   0.0000   0.1081
  -3.800  -0.2097   0.01007   0.00291  -0.0277  0.4846  0.0836  -1.5015   0.0000   0.1016
  -3.600  -0.1910   0.01003   0.00285  -0.0269  0.4741  0.0877  -1.4340   0.0000   0.0927
  -3.400  -0.1728   0.00997   0.00278  -0.0259  0.4638  0.0930  -1.3688   0.0000   0.0828
  -3.200  -0.1544   0.00994   0.00273  -0.0250  0.4530  0.0979  -1.3066   0.0000   0.0701
  -3.000  -0.1362   0.00990   0.00267  -0.0241  0.4418  0.1043  -1.2455   0.0000   0.0546
  -2.800  -0.1179   0.00985   0.00262  -0.0232  0.4311  0.1116  -1.1850   0.0000   0.0338
  -2.600  -0.0994   0.00981   0.00257  -0.0223  0.4216  0.1194  -1.1249   0.0000   0.0046
  -2.000  -0.0452   0.00962   0.00242  -0.0195  0.3941  0.1566  -0.9577   0.0000  -0.2123
  -1.800  -0.0278   0.00953   0.00237  -0.0184  0.3849  0.1759  -0.9054   0.0000  -0.4565
  -1.600  -0.0112   0.00938   0.00231  -0.0172  0.3775  0.2058  -0.8569   0.0000  -1.3821
  -1.400   0.0026   0.00911   0.00221  -0.0155  0.3705  0.2602  -0.8127   0.0000   6.5529
  -1.200   0.0155   0.00879   0.00211  -0.0136  0.3645  0.3273  -0.7713   0.0000   1.1697
  -1.000   0.0308   0.00861   0.00207  -0.0122  0.3573  0.3726  -0.7899   0.0000   0.6590
  -0.800   0.0470   0.00847   0.00204  -0.0109  0.3510  0.4105  -0.8099   0.0000   0.4858
  -0.600   0.0641   0.00838   0.00202  -0.0097  0.3445  0.4401  -0.8315   0.0000   0.4018
  -0.400   0.0820   0.00833   0.00201  -0.0087  0.3392  0.4628  -0.8538   0.0000   0.3539
  -0.200   0.1004   0.00827   0.00201  -0.0078  0.3343  0.4834  -0.8765   0.0000   0.3237
   0.000   0.1182   0.00822   0.00201  -0.0068  0.3288  0.5066  -0.8989   0.0000   0.3021
   0.200   0.1365   0.00819   0.00202  -0.0059  0.3239  0.5260  -0.9217   0.0000   0.2867
   0.400   0.1549   0.00816   0.00202  -0.0050  0.3189  0.5436  -0.9450   0.0000   0.2751
   0.600   0.1729   0.00813   0.00204  -0.0040  0.3142  0.5638  -0.9688   0.0000   0.2654
   0.800   0.1909   0.00810   0.00205  -0.0030  0.3106  0.5852  -0.9928   0.0000   0.2575
   1.000   0.2089   0.00805   0.00207  -0.0020  0.3071  0.6057  -1.0170   0.0000   0.2510
   1.200   0.2266   0.00803   0.00209  -0.0009  0.3030  0.6270  -1.0411   0.0000   0.2452
   1.400   0.2436   0.00801   0.00212   0.0003  0.2989  0.6482  -1.0647   0.0000   0.2397
   1.600   0.2621   0.00800   0.00215   0.0012  0.2957  0.6642  -1.0894   0.0000   0.2360
   1.800   0.2815   0.00801   0.00218   0.0019  0.2923  0.6744  -1.1151   0.0000   0.2335
   2.000   0.3005   0.00804   0.00221   0.0027  0.2890  0.6849  -1.1416   0.0000   0.2311
   2.200   0.3190   0.00807   0.00225   0.0036  0.2856  0.6952  -1.1680   0.0000   0.2287
   2.400   0.3381   0.00809   0.00229   0.0044  0.2827  0.7057  -1.1948   0.0000   0.2268
   2.600   0.3571   0.00811   0.00233   0.0052  0.2795  0.7166  -1.2228   0.0000   0.2251
   2.800   0.3755   0.00813   0.00237   0.0061  0.2761  0.7272  -1.2507   0.0000   0.2232
   3.000   0.3938   0.00817   0.00242   0.0070  0.2728  0.7376  -1.2786   0.0000   0.2214
   3.200   0.4123   0.00821   0.00247   0.0079  0.2700  0.7485  -1.3068   0.0000   0.2199
   3.400   0.4307   0.00823   0.00252   0.0088  0.2673  0.7601  -1.3350   0.0000   0.2184
   3.600   0.4486   0.00825   0.00257   0.0098  0.2642  0.7719  -1.3633   0.0000   0.2168
   3.800   0.4663   0.00829   0.00263   0.0108  0.2612  0.7833  -1.3926   0.0000   0.2153
   4.000   0.4840   0.00835   0.00270   0.0118  0.2583  0.7943  -1.4219   0.0000   0.2138
   4.200   0.5020   0.00838   0.00276   0.0128  0.2561  0.8057  -1.4517   0.0000   0.2126
   4.400   0.5194   0.00840   0.00282   0.0139  0.2536  0.8174  -1.4811   0.0000   0.2111
   4.600   0.5362   0.00844   0.00288   0.0151  0.2507  0.8287  -1.5101   0.0000   0.2094
   4.800   0.5525   0.00849   0.00295   0.0164  0.2477  0.8404  -1.5390   0.0000   0.2077
   5.000   0.5688   0.00855   0.00303   0.0177  0.2450  0.8521  -1.5692   0.0000   0.2060
   5.200   0.5862   0.00859   0.00311   0.0188  0.2431  0.8639  -1.6006   0.0000   0.2049
   5.400   0.6042   0.00864   0.00320   0.0197  0.2407  0.8758  -1.6326   0.0000   0.2041
   5.600   0.6229   0.00871   0.00330   0.0205  0.2379  0.8872  -1.6653   0.0000   0.2036
   5.800   0.6421   0.00880   0.00341   0.0212  0.2348  0.8985  -1.6988   0.0000   0.2035
   6.000   0.6623   0.00892   0.00353   0.0216  0.2317  0.9094  -1.7333   0.0000   0.2037
   6.200   0.6850   0.00901   0.00365   0.0214  0.2297  0.9192  -1.7721   0.0000   0.2048
   6.400   0.7104   0.00912   0.00378   0.0207  0.2271  0.9271  -1.8155   0.0000   0.2068
   6.600   0.7354   0.00926   0.00392   0.0200  0.2239  0.9351  -1.8587   0.0000   0.2086
   6.800   0.7636   0.00943   0.00408   0.0186  0.2204  0.9413  -1.9053   0.0000   0.2113
   7.000   0.7906   0.00958   0.00423   0.0175  0.2177  0.9474  -1.9510   0.0000   0.2134
   7.200   0.8211   0.00974   0.00439   0.0155  0.2149  0.9512  -2.0008   0.0000   0.2164
   7.400   0.8486   0.00990   0.00454   0.0143  0.2120  0.9557  -2.0483   0.0000   0.2183
   7.600   0.8763   0.01008   0.00471   0.0129  0.2091  0.9591  -2.0977   0.0000   0.2202
   7.800   0.9060   0.01028   0.00489   0.0111  0.2060  0.9612  -2.1510   0.0000   0.2225
   8.000   0.9338   0.01044   0.00506   0.0098  0.2035  0.9639  -2.2035   0.0000   0.2241
   8.200   0.9564   0.01060   0.00521   0.0096  0.2006  0.9683  -2.2505   0.0000   0.2244
   8.400   0.9826   0.01081   0.00540   0.0085  0.1974  0.9701  -2.3017   0.0000   0.2255
   8.600   1.0071   0.01103   0.00560   0.0078  0.1942  0.9723  -2.3529   0.0000   0.2262
   8.800   1.0299   0.01119   0.00577   0.0075  0.1921  0.9752  -2.4030   0.0000   0.2264
   9.000   1.0501   0.01136   0.00595   0.0077  0.1898  0.9787  -2.4504   0.0000   0.2261
   9.200   1.0743   0.01157   0.00615   0.0070  0.1867  0.9802  -2.5027   0.0000   0.2266
   9.400   1.0971   0.01181   0.00637   0.0065  0.1835  0.9823  -2.5537   0.0000   0.2269
   9.600   1.1191   0.01202   0.00658   0.0063  0.1812  0.9849  -2.6098   0.0000   0.2270
   9.800   1.1402   0.01221   0.00678   0.0063  0.1787  0.9876  -2.6660   0.0000   0.2268
  10.000   1.1641   0.01245   0.00700   0.0056  0.1751  0.9888  -2.7264   0.0000   0.2273
  10.200   1.1865   0.01273   0.00726   0.0051  0.1714  0.9904  -2.7851   0.0000   0.2275
  10.400   1.2092   0.01294   0.00748   0.0046  0.1689  0.9920  -2.8450   0.0000   0.2277
  10.600   1.2309   0.01318   0.00772   0.0043  0.1661  0.9938  -2.9108   0.0000   0.2277
  10.800   1.2519   0.01345   0.00798   0.0041  0.1631  0.9954  -2.9760   0.0000   0.2276
  11.000   1.2737   0.01376   0.00828   0.0036  0.1596  0.9970  -3.0428   0.0000   0.2277
  11.200   1.2966   0.01402   0.00853   0.0030  0.1565  0.9983  -3.1119   0.0000   0.2279
  11.400   1.3187   0.01432   0.00883   0.0025  0.1526  0.9993  -3.1801   0.0000   0.2281
  11.600   1.3390   0.01468   0.00917   0.0022  0.1491  1.0000  -3.2458   0.0000   0.2280
  11.800   1.3464   0.01492   0.00943   0.0046  0.1474  1.0000  -3.2912   0.0000   0.2258
  12.000   1.3548   0.01517   0.00970   0.0068  0.1455  1.0000  -3.3449   0.0000   0.2239
  12.200   1.3630   0.01546   0.01000   0.0090  0.1433  1.0000  -3.3999   0.0000   0.2220
  12.400   1.3710   0.01581   0.01034   0.0111  0.1409  1.0000  -3.4545   0.0000   0.2201
  12.600   1.3781   0.01622   0.01075   0.0132  0.1380  1.0000  -3.5075   0.0000   0.2182
  12.800   1.3875   0.01657   0.01111   0.0150  0.1355  1.0000  -3.5652   0.0000   0.2166
  13.000   1.3963   0.01698   0.01153   0.0168  0.1324  1.0000  -3.6235   0.0000   0.2150
  13.200   1.4036   0.01748   0.01202   0.0187  0.1292  1.0000  -3.6814   0.0000   0.2134
  13.400   1.4119   0.01797   0.01252   0.0203  0.1266  1.0000  -3.7437   0.0000   0.2119
  13.600   1.4213   0.01843   0.01300   0.0218  0.1242  1.0000  -3.8091   0.0000   0.2105
  13.800   1.4297   0.01898   0.01355   0.0233  0.1214  1.0000  -3.8723   0.0000   0.2092
  14.000   1.4366   0.01963   0.01420   0.0249  0.1185  1.0000  -3.9322   0.0000   0.2077
  14.200   1.4450   0.02024   0.01483   0.0263  0.1162  1.0000  -3.9973   0.0000   0.2065
  14.400   1.4533   0.02088   0.01548   0.0275  0.1134  1.0000  -4.0632   0.0000   0.2053
  14.600   1.4598   0.02166   0.01626   0.0289  0.1103  1.0000  -4.1250   0.0000   0.2040
  14.800   1.4659   0.02250   0.01712   0.0302  0.1076  1.0000  -4.1855   0.0000   0.2028
  15.000   1.4735   0.02328   0.01792   0.0312  0.1052  1.0000  -4.2521   0.0000   0.2018
  15.200   1.4797   0.02419   0.01884   0.0323  0.1024  1.0000  -4.3154   0.0000   0.2007
  15.400   1.4840   0.02527   0.01993   0.0334  0.0997  1.0000  -4.3739   0.0000   0.1996
  15.600   1.4902   0.02626   0.02094   0.0343  0.0976  1.0000  -4.4373   0.0000   0.1986
  15.800   1.4959   0.02732   0.02203   0.0351  0.0953  1.0000  -4.5017   0.0000   0.1977
  16.000   1.4996   0.02857   0.02329   0.0359  0.0927  1.0000  -4.5605   0.0000   0.1967
  16.200   1.5016   0.02999   0.02474   0.0366  0.0903  1.0000  -4.6146   0.0000   0.1958
  16.400   1.5061   0.03128   0.02606   0.0372  0.0882  1.0000  -4.6756   0.0000   0.1950
  16.600   1.5085   0.03277   0.02758   0.0377  0.0859  1.0000  -4.7318   0.0000   0.1942
  16.800   1.5087   0.03451   0.02934   0.0382  0.0835  1.0000  -4.7818   0.0000   0.1933
  17.000   1.5093   0.03627   0.03113   0.0386  0.0816  1.0000  -4.8331   0.0000   0.1926
  17.200   1.5105   0.03803   0.03293   0.0388  0.0796  1.0000  -4.8873   0.0000   0.1919
  17.400   1.5091   0.04007   0.03501   0.0389  0.0775  1.0000  -4.9336   0.0000   0.1913
  17.600   1.5051   0.04243   0.03740   0.0390  0.0755  1.0000  -4.9710   0.0000   0.1906
  17.800   1.5027   0.04470   0.03972   0.0389  0.0738  1.0000  -5.0128   0.0000   0.1901
  18.000   1.4999   0.04704   0.04211   0.0388  0.0721  1.0000  -5.0532   0.0000   0.1896
  18.200   1.4945   0.04972   0.04484   0.0385  0.0703  1.0000  -5.0841   0.0000   0.1891
  18.400   1.4863   0.05276   0.04793   0.0381  0.0686  1.0000  -5.1061   0.0000   0.1886
  18.600   1.4784   0.05583   0.05105   0.0376  0.0672  1.0000  -5.1283   0.0000   0.1882
  18.800   1.4717   0.05881   0.05409   0.0370  0.0658  1.0000  -5.1541   0.0000   0.1879
  19.000   1.4624   0.06214   0.05748   0.0363  0.0645  1.0000  -5.1700   0.0000   0.1876
  19.200   1.4507   0.06582   0.06122   0.0354  0.0631  1.0000  -5.1759   0.0000   0.1874
  19.400   1.4374   0.06973   0.06520   0.0345  0.0619  1.0000  -5.1746   0.0000   0.1873
  19.600   1.4247   0.07363   0.06916   0.0334  0.0608  1.0000  -5.1748   0.0000   0.1872
  19.800   1.4139   0.07735   0.07295   0.0323  0.0598  1.0000  -5.1807   0.0000   0.1872
  20.000   1.4015   0.08130   0.07697   0.0311  0.0587  1.0000  -5.1794   0.0000   0.1872
  20.200   1.3876   0.08552   0.08125   0.0298  0.0575  1.0000  -5.1709   0.0000   0.1873
  20.400   1.3724   0.08995   0.08575   0.0283  0.0564  1.0000  -5.1559   0.0000   0.1875
  20.600   1.3566   0.09449   0.09036   0.0268  0.0554  1.0000  -5.1370   0.0000   0.1878
  20.800   1.3446   0.09858   0.09450   0.0253  0.0544  1.0000  -5.1320   0.0000   0.1881
  21.000   1.3331   0.10266   0.09865   0.0238  0.0534  1.0000  -5.1276   0.0000   0.1885
  21.200   1.3213   0.10680   0.10285   0.0222  0.0523  1.0000  -5.1204   0.0000   0.1890
  21.400   1.3099   0.11089   0.10699   0.0205  0.0512  1.0000  -5.1141   0.0000   0.1895
  21.600   1.2972   0.11524   0.11139   0.0187  0.0501  1.0000  -5.1002   0.0000   0.1901
  21.800   1.2859   0.11944   0.11564   0.0169  0.0491  1.0000  -5.0908   0.0000   0.1908
  22.000   1.2800   0.12285   0.11909   0.0154  0.0481  1.0000  -5.1039   0.0000   0.1914
  22.200   1.2706   0.12678   0.12307   0.0136  0.0471  1.0000  -5.1005   0.0000   0.1921
  22.400   1.2635   0.13041   0.12674   0.0118  0.0460  1.0000  -5.1058   0.0000   0.1928
  22.600   1.2537   0.13451   0.13088   0.0098  0.0450  1.0000  -5.0969   0.0000   0.1938
  22.800   1.2476   0.13805   0.13445   0.0080  0.0441  1.0000  -5.1060   0.0000   0.1946
  23.000   1.2426   0.14143   0.13788   0.0062  0.0432  1.0000  -5.1189   0.0000   0.1954
  23.200   1.2394   0.14453   0.14101   0.0045  0.0423  1.0000  -5.1398   0.0000   0.1962
  23.400   1.2325   0.14824   0.14477   0.0024  0.0413  1.0000  -5.1410   0.0000   0.1973
  23.600   1.2278   0.15163   0.14817   0.0005  0.0403  1.0000  -5.1520   0.0000   0.1982
  23.800   1.2218   0.15524   0.15182  -0.0016  0.0395  1.0000  -5.1551   0.0000   0.1994
  24.000   1.2207   0.15807   0.15468  -0.0034  0.0386  1.0000  -5.1834   0.0000   0.2002
  24.200   1.2195   0.16092   0.15757  -0.0052  0.0377  1.0000  -5.2113   0.0000   0.2011
  24.400   1.2147   0.16438   0.16107  -0.0074  0.0368  1.0000  -5.2189   0.0000   0.2023
  24.600   1.2114   0.16760   0.16430  -0.0094  0.0359  1.0000  -5.2336   0.0000   0.2034
  24.800   1.2094   0.17058   0.16731  -0.0114  0.0351  1.0000  -5.2546   0.0000   0.2044
  25.000   1.2074   0.17359   0.17036  -0.0134  0.0344  1.0000  -5.2759   0.0000   0.2055


