xflr5 v6.47

 Calculated polar for: NACA24018_theta30_Ku4.5_Kl0.5_d0.21_delta5.84

 1 1 Reynolds number fixed          Mach number fixed         

 xtrf =   1.000 (top)        1.000 (bottom)
 Mach =   0.000     Re =     2.000 e 6     Ncrit =   5.000

  alpha     CL        CD       CDp       Cm    Top Xtr Bot Xtr   Cpmin    Chinge    XCp    
 ------- -------- --------- --------- -------- ------- ------- -------- --------- ---------
 -15.000  -0.8012   0.02854   0.02410  -0.1108  0.8830  0.0297  -5.8441   0.0000   0.0865
 -14.800  -0.7797   0.02827   0.02384  -0.1115  0.8830  0.0301  -5.7046   0.0000   0.0817
 -14.600  -0.7579   0.02806   0.02363  -0.1122  0.8830  0.0306  -5.5653   0.0000   0.0767
 -14.400  -0.7346   0.02786   0.02343  -0.1131  0.8830  0.0310  -5.4216   0.0000   0.0708
 -14.200  -0.7097   0.02767   0.02324  -0.1142  0.8829  0.0314  -5.2738   0.0000   0.0637
 -14.000  -0.6858   0.02754   0.02311  -0.1151  0.8829  0.0319  -5.1310   0.0000   0.0567
 -13.800  -0.6622   0.02745   0.02302  -0.1159  0.8829  0.0322  -4.9922   0.0000   0.0493
 -13.600  -0.6380   0.02736   0.02293  -0.1169  0.8829  0.0327  -4.8571   0.0000   0.0410
 -13.200  -0.6000   0.02712   0.02271  -0.1170  0.8792  0.0338  -4.6218   0.0000   0.0291
 -13.000  -0.5692   0.02682   0.02242  -0.1188  0.8778  0.0345  -4.4700   0.0000   0.0148
 -12.800  -0.5352   0.02648   0.02208  -0.1212  0.8768  0.0353  -4.3105   0.0000  -0.0035
 -12.600  -0.5003   0.02613   0.02173  -0.1236  0.8761  0.0360  -4.1506   0.0000  -0.0251
 -12.400  -0.4649   0.02580   0.02142  -0.1262  0.8757  0.0370  -3.9923   0.0000  -0.0505
 -12.200  -0.4295   0.02549   0.02111  -0.1288  0.8754  0.0380  -3.8359   0.0000  -0.0802
 -12.000  -0.3951   0.02521   0.02084  -0.1312  0.8751  0.0389  -3.6843   0.0000  -0.1139
 -11.800  -0.3603   0.02491   0.02055  -0.1336  0.8748  0.0397  -3.5342   0.0000  -0.1544
  -9.800  -0.0872   0.02474   0.02054  -0.1450  0.8551  0.0521  -2.3742   0.0000  -1.5117
  -9.600  -0.0975   0.02639   0.02220  -0.1400  0.8219  0.0525  -2.3513   0.0000  -1.2726
  -9.400  -0.0406   0.02522   0.02103  -0.1458  0.8154  0.0549  -2.1874   0.0000  -3.5386
  -9.200   0.0235   0.02374   0.01951  -0.1529  0.8078  0.0579  -2.0137   0.0000   7.0783
  -9.000   0.0846   0.02210   0.01751  -0.1596  0.7399  0.0614  -1.8581   0.0000   2.2215
  -8.800   0.0953   0.02269   0.01790  -0.1577  0.6892  0.0630  -1.7984   0.0000   1.9792
  -8.600   0.1150   0.02303   0.01811  -0.1575  0.6553  0.0651  -1.7228   0.0000   1.6776
  -8.400   0.1384   0.02327   0.01826  -0.1579  0.6270  0.0678  -1.6417   0.0000   1.4375
  -8.200   0.1624   0.02347   0.01836  -0.1584  0.6002  0.0703  -1.5605   0.0000   1.2631
  -8.000   0.1883   0.02365   0.01847  -0.1592  0.5773  0.0735  -1.4772   0.0000   1.1266
  -7.800   0.2142   0.02380   0.01855  -0.1600  0.5586  0.0762  -1.3953   0.0000   1.0231
  -7.600   0.2417   0.02396   0.01866  -0.1611  0.5410  0.0802  -1.3120   0.0000   0.9386
  -7.400   0.2686   0.02410   0.01876  -0.1620  0.5241  0.0842  -1.2317   0.0000   0.8721
  -7.200   0.2960   0.02424   0.01884  -0.1631  0.5062  0.0886  -1.1567   0.0000   0.8172
  -7.000   0.3240   0.02438   0.01893  -0.1642  0.4879  0.0941  -1.0839   0.0000   0.7709
  -6.800   0.3518   0.02450   0.01899  -0.1653  0.4700  0.0996  -1.0127   0.0000   0.7321
  -6.400   0.4087   0.02482   0.01924  -0.1678  0.4391  0.1141  -0.8737   0.0000   0.6697
  -6.200   0.4370   0.02500   0.01938  -0.1690  0.4241  0.1221  -0.8336   0.0000   0.6446
  -6.000   0.4660   0.02520   0.01955  -0.1703  0.4102  0.1323  -0.8621   0.0000   0.6223
  -5.800   0.4956   0.02541   0.01975  -0.1717  0.3979  0.1446  -0.8912   0.0000   0.6025
  -5.600   0.5257   0.02564   0.01998  -0.1732  0.3871  0.1590  -0.9210   0.0000   0.5846
  -5.400   0.5573   0.02590   0.02023  -0.1750  0.3743  0.1787  -0.9528   0.0000   0.5684
  -5.200   0.5927   0.02624   0.02060  -0.1776  0.3631  0.2082  -0.9879   0.0000   0.5532
  -5.000   0.6380   0.02677   0.02124  -0.1821  0.3535  0.2640  -1.0304   0.0000   0.5382
  -4.800   0.6875   0.02742   0.02201  -0.1873  0.3424  0.3304  -1.0780   0.0000   0.5246
  -4.600   0.7266   0.02790   0.02255  -0.1905  0.3341  0.3711  -1.1184   0.0000   0.5138
  -4.400   0.7589   0.02826   0.02291  -0.1924  0.3267  0.3940  -1.1541   0.0000   0.5046
  -4.200   0.7892   0.02857   0.02323  -0.1938  0.3202  0.4118  -1.1885   0.0000   0.4963
  -4.000   0.8195   0.02890   0.02358  -0.1953  0.3163  0.4276  -1.2231   0.0000   0.4886
  -3.800   0.8507   0.02926   0.02395  -0.1969  0.3112  0.4460  -1.2587   0.0000   0.4813
  -3.600   0.8814   0.02961   0.02429  -0.1984  0.3048  0.4625  -1.2942   0.0000   0.4746
  -3.400   0.9124   0.02998   0.02467  -0.2000  0.3002  0.4793  -1.3301   0.0000   0.4683
  -3.200   0.9437   0.03036   0.02506  -0.2016  0.2948  0.4969  -1.3686   0.0000   0.4624
  -3.000   0.9704   0.03063   0.02530  -0.2024  0.2891  0.5082  -1.4044   0.0000   0.4569
  -2.800   0.9973   0.03092   0.02558  -0.2032  0.2849  0.5160  -1.4406   0.0000   0.4517
  -2.600   1.0225   0.03118   0.02585  -0.2036  0.2823  0.5221  -1.4756   0.0000   0.4468
  -2.400   1.0458   0.03140   0.02605  -0.2037  0.2792  0.5265  -1.5091   0.0000   0.4422
  -2.200   1.0682   0.03159   0.02622  -0.2037  0.2756  0.5297  -1.5420   0.0000   0.4377
  -2.000   1.0933   0.03186   0.02647  -0.2041  0.2712  0.5344  -1.5774   0.0000   0.4334
  -1.800   1.1178   0.03212   0.02672  -0.2044  0.2678  0.5392  -1.6125   0.0000   0.4293
  -1.600   1.1412   0.03236   0.02695  -0.2046  0.2646  0.5440  -1.6485   0.0000   0.4254
  -1.400   1.1635   0.03258   0.02715  -0.2045  0.2605  0.5480  -1.6850   0.0000   0.4216
  -1.200   1.1867   0.03283   0.02737  -0.2046  0.2562  0.5519  -1.7225   0.0000   0.4179
  -1.000   1.2111   0.03311   0.02764  -0.2049  0.2527  0.5565  -1.7613   0.0000   0.4144
  -0.800   1.2345   0.03337   0.02791  -0.2050  0.2508  0.5608  -1.7994   0.0000   0.4110
  -0.600   1.2569   0.03362   0.02815  -0.2049  0.2484  0.5647  -1.8368   0.0000   0.4077
  -0.400   1.2786   0.03385   0.02837  -0.2047  0.2457  0.5682  -1.8737   0.0000   0.4044
  -0.200   1.3018   0.03413   0.02863  -0.2048  0.2423  0.5725  -1.9122   0.0000   0.4014
   0.000   1.3256   0.03443   0.02892  -0.2050  0.2382  0.5775  -1.9515   0.0000   0.3984
   0.200   1.3481   0.03470   0.02919  -0.2049  0.2359  0.5818  -1.9898   0.0000   0.3955
   0.400   1.3696   0.03495   0.02944  -0.2047  0.2330  0.5855  -2.0281   0.0000   0.3926
   0.600   1.3904   0.03519   0.02966  -0.2043  0.2298  0.5884  -2.0681   0.0000   0.3898
   0.800   1.4122   0.03547   0.02992  -0.2042  0.2259  0.5921  -2.1111   0.0000   0.3872
   1.000   1.4351   0.03580   0.03024  -0.2042  0.2225  0.5968  -2.1555   0.0000   0.3846
   1.200   1.4571   0.03609   0.03054  -0.2041  0.2204  0.6013  -2.1993   0.0000   0.3820
   1.400   1.4782   0.03637   0.03082  -0.2037  0.2180  0.6052  -2.2422   0.0000   0.3795
   1.600   1.4985   0.03663   0.03107  -0.2033  0.2153  0.6082  -2.2844   0.0000   0.3771
   1.800   1.5193   0.03693   0.03136  -0.2030  0.2123  0.6115  -2.3275   0.0000   0.3747
   2.000   1.5413   0.03728   0.03170  -0.2028  0.2088  0.6160  -2.3721   0.0000   0.3724
   2.200   1.5627   0.03760   0.03203  -0.2026  0.2069  0.6201  -2.4163   0.0000   0.3701
   2.400   1.5831   0.03790   0.03233  -0.2021  0.2042  0.6237  -2.4598   0.0000   0.3679
   2.600   1.6027   0.03820   0.03262  -0.2016  0.2009  0.6266  -2.5041   0.0000   0.3656
   2.800   1.6216   0.03851   0.03291  -0.2009  0.1971  0.6290  -2.5479   0.0000   0.3635
   3.000   1.6420   0.03885   0.03325  -0.2005  0.1942  0.6325  -2.5953   0.0000   0.3613
   3.200   1.6628   0.03921   0.03361  -0.2002  0.1918  0.6365  -2.6451   0.0000   0.3593
   3.400   1.6826   0.03956   0.03396  -0.1996  0.1888  0.6403  -2.6946   0.0000   0.3573
   3.600   1.7014   0.03991   0.03431  -0.1990  0.1854  0.6436  -2.7443   0.0000   0.3552
   3.800   1.7198   0.04027   0.03465  -0.1982  0.1820  0.6467  -2.7938   0.0000   0.3532
   4.000   1.7385   0.04061   0.03499  -0.1975  0.1800  0.6492  -2.8461   0.0000   0.3512
   4.200   1.7574   0.04098   0.03538  -0.1969  0.1771  0.6523  -2.9006   0.0000   0.3493
   4.400   1.7757   0.04141   0.03579  -0.1961  0.1739  0.6555  -2.9546   0.0000   0.3474
   4.600   1.7929   0.04185   0.03623  -0.1952  0.1704  0.6584  -3.0072   0.0000   0.3455
   4.800   1.8104   0.04228   0.03667  -0.1943  0.1682  0.6613  -3.0607   0.0000   0.3436
   5.000   1.8275   0.04273   0.03712  -0.1934  0.1650  0.6643  -3.1159   0.0000   0.3418
   5.200   1.8435   0.04323   0.03760  -0.1923  0.1607  0.6669  -3.1735   0.0000   0.3399
   5.400   1.8596   0.04371   0.03806  -0.1912  0.1572  0.6690  -3.2314   0.0000   0.3381
   5.600   1.8763   0.04415   0.03852  -0.1902  0.1550  0.6713  -3.2908   0.0000   0.3363
   5.800   1.8927   0.04463   0.03901  -0.1892  0.1521  0.6741  -3.3500   0.0000   0.3345
   6.000   1.9079   0.04517   0.03954  -0.1880  0.1483  0.6770  -3.4076   0.0000   0.3327
   6.200   1.9237   0.04568   0.04005  -0.1869  0.1452  0.6799  -3.4713   0.0000   0.3310
   6.400   1.9390   0.04621   0.04058  -0.1857  0.1415  0.6825  -3.5382   0.0000   0.3292
   6.600   1.9529   0.04683   0.04118  -0.1843  0.1373  0.6847  -3.6031   0.0000   0.3275
   6.800   1.9674   0.04742   0.04177  -0.1831  0.1347  0.6868  -3.6701   0.0000   0.3258
   7.000   1.9815   0.04806   0.04242  -0.1817  0.1321  0.6887  -3.7382   0.0000   0.3241
   7.200   1.9941   0.04876   0.04312  -0.1802  0.1288  0.6906  -3.8068   0.0000   0.3223
   7.400   2.0065   0.04946   0.04382  -0.1786  0.1255  0.6930  -3.8771   0.0000   0.3206
   7.600   2.0196   0.05010   0.04447  -0.1772  0.1224  0.6953  -3.9550   0.0000   0.3189
   7.800   2.0309   0.05086   0.04523  -0.1755  0.1183  0.6973  -4.0313   0.0000   0.3172
   8.000   2.0427   0.05160   0.04596  -0.1739  0.1148  0.6992  -4.1090   0.0000   0.3156
   8.200   2.0529   0.05247   0.04683  -0.1722  0.1109  0.7012  -4.1839   0.0000   0.3139
   8.400   2.0618   0.05346   0.04782  -0.1702  0.1070  0.7031  -4.2565   0.0000   0.3121
   8.600   2.0726   0.05434   0.04870  -0.1686  0.1036  0.7051  -4.3335   0.0000   0.3105
   8.800   2.0821   0.05533   0.04969  -0.1668  0.1002  0.7068  -4.4082   0.0000   0.3089
   9.000   2.0930   0.05623   0.05060  -0.1652  0.0978  0.7083  -4.4865   0.0000   0.3073
   9.200   2.1018   0.05727   0.05166  -0.1634  0.0951  0.7097  -4.5604   0.0000   0.3056
   9.400   2.1084   0.05839   0.05279  -0.1613  0.0922  0.7117  -4.6292   0.0000   0.3040
   9.600   2.1167   0.05938   0.05380  -0.1595  0.0898  0.7137  -4.7038   0.0000   0.3024
   9.800   2.1237   0.06050   0.05493  -0.1576  0.0870  0.7155  -4.7819   0.0000   0.3008
  10.000   2.1277   0.06189   0.05633  -0.1553  0.0839  0.7172  -4.8525   0.0000   0.2991
  10.200   2.1346   0.06305   0.05752  -0.1535  0.0813  0.7188  -4.9311   0.0000   0.2976
  10.400   2.1382   0.06454   0.05902  -0.1513  0.0782  0.7202  -5.0013   0.0000   0.2960
  10.600   2.1427   0.06599   0.06049  -0.1493  0.0756  0.7216  -5.0766   0.0000   0.2944
  10.800   2.1469   0.06751   0.06203  -0.1474  0.0729  0.7231  -5.1513   0.0000   0.2929
  11.000   2.1492   0.06924   0.06378  -0.1454  0.0704  0.7245  -5.2212   0.0000   0.2914
  11.200   2.1535   0.07086   0.06542  -0.1437  0.0683  0.7259  -5.2967   0.0000   0.2900
  11.400   2.1558   0.07270   0.06730  -0.1419  0.0660  0.7271  -5.3666   0.0000   0.2886
  11.600   2.1577   0.07462   0.06924  -0.1402  0.0639  0.7281  -5.4356   0.0000   0.2872
  11.800   2.1593   0.07643   0.07108  -0.1385  0.0621  0.7293  -5.5033   0.0000   0.2859
  12.000   2.1584   0.07846   0.07315  -0.1368  0.0602  0.7306  -5.5631   0.0000   0.2846
  12.200   2.1570   0.08058   0.07531  -0.1351  0.0584  0.7317  -5.6214   0.0000   0.2833
  12.400   2.1570   0.08257   0.07735  -0.1336  0.0567  0.7330  -5.6850   0.0000   0.2821
  12.600   2.1545   0.08488   0.07970  -0.1322  0.0548  0.7342  -5.7416   0.0000   0.2809
  12.800   2.1513   0.08731   0.08217  -0.1309  0.0532  0.7354  -5.7957   0.0000   0.2799
  13.000   2.1497   0.08960   0.08451  -0.1298  0.0518  0.7367  -5.8544   0.0000   0.2788
  13.200   2.1471   0.09203   0.08700  -0.1289  0.0503  0.7380  -5.9098   0.0000   0.2779
  13.400   2.1432   0.09468   0.08969  -0.1281  0.0490  0.7392  -5.9600   0.0000   0.2770
  13.600   2.1408   0.09719   0.09225  -0.1275  0.0479  0.7403  -6.0146   0.0000   0.2762
  13.800   2.1375   0.09983   0.09495  -0.1271  0.0467  0.7414  -6.0662   0.0000   0.2755
  14.000   2.1329   0.10268   0.09786  -0.1268  0.0454  0.7423  -6.1119   0.0000   0.2749
  14.200   2.1268   0.10573   0.10096  -0.1268  0.0442  0.7432  -6.1518   0.0000   0.2744
  14.400   2.1237   0.10843   0.10372  -0.1268  0.0432  0.7440  -6.2062   0.0000   0.2739
  14.600   2.1193   0.11133   0.10667  -0.1271  0.0420  0.7449  -6.2550   0.0000   0.2735
  14.800   2.1127   0.11454   0.10993  -0.1276  0.0408  0.7457  -6.2943   0.0000   0.2733
  15.000   2.1055   0.11786   0.11332  -0.1283  0.0398  0.7464  -6.3299   0.0000   0.2731
  15.200   2.1002   0.12094   0.11646  -0.1291  0.0390  0.7471  -6.3718   0.0000   0.2730
  15.400   2.0929   0.12403   0.11962  -0.1299  0.0381  0.7482  -6.4053   0.0000   0.2729
  15.600   2.0848   0.12726   0.12291  -0.1308  0.0373  0.7492  -6.4340   0.0000   0.2729
  15.800   2.0757   0.13064   0.12636  -0.1321  0.0364  0.7501  -6.4575   0.0000   0.2731
  16.000   2.0678   0.13389   0.12967  -0.1333  0.0357  0.7509  -6.4845   0.0000   0.2733
  16.200   2.0601   0.13710   0.13295  -0.1347  0.0351  0.7517  -6.5115   0.0000   0.2735
  16.400   2.0511   0.14052   0.13645  -0.1363  0.0344  0.7525  -6.5316   0.0000   0.2738
  16.600   2.0415   0.14405   0.14004  -0.1382  0.0336  0.7532  -6.5474   0.0000   0.2743
  16.800   2.0313   0.14769   0.14375  -0.1402  0.0330  0.7539  -6.5589   0.0000   0.2749
  17.000   2.0222   0.15118   0.14730  -0.1422  0.0323  0.7547  -6.5740   0.0000   0.2755
  17.200   2.0146   0.15447   0.15066  -0.1442  0.0318  0.7555  -6.5949   0.0000   0.2760
  17.400   2.0057   0.15797   0.15423  -0.1465  0.0312  0.7564  -6.6086   0.0000   0.2767
  17.600   1.9978   0.16134   0.15765  -0.1487  0.0306  0.7573  -6.6253   0.0000   0.2773
  17.800   1.9898   0.16472   0.16109  -0.1510  0.0300  0.7582  -6.6409   0.0000   0.2780
  18.000   1.9799   0.16847   0.16490  -0.1538  0.0295  0.7591  -6.6444   0.0000   0.2790
  18.200   1.9723   0.17184   0.16833  -0.1564  0.0289  0.7601  -6.6591   0.0000   0.2798
  18.400   1.9662   0.17501   0.17156  -0.1588  0.0284  0.7610  -6.6798   0.0000   0.2805
  18.600   1.9599   0.17822   0.17483  -0.1613  0.0279  0.7619  -6.6982   0.0000   0.2813
  18.800   1.9540   0.18135   0.17801  -0.1639  0.0273  0.7626  -6.7182   0.0000   0.2821
  19.000   1.9467   0.18473   0.18143  -0.1667  0.0267  0.7633  -6.7288   0.0000   0.2830
  19.200   1.9404   0.18791   0.18466  -0.1694  0.0261  0.7640  -6.7445   0.0000   0.2839
  19.400   1.9345   0.19107   0.18787  -0.1722  0.0256  0.7645  -6.7603   0.0000   0.2848
  19.600   1.9302   0.19392   0.19077  -0.1747  0.0251  0.7651  -6.7850   0.0000   0.2855
  19.800   1.9266   0.19640   0.19329  -0.1767  0.0246  0.7660  -6.8189   0.0000   0.2860
  20.000   1.9188   0.19959   0.19653  -0.1796  0.0242  0.7668  -6.8261   0.0000   0.2870
  20.200   1.9148   0.20210   0.19908  -0.1818  0.0236  0.7678  -6.8561   0.0000   0.2876
  20.400   1.9072   0.20526   0.20229  -0.1848  0.0232  0.7686  -6.8619   0.0000   0.2887
  20.600   1.9033   0.20775   0.20483  -0.1871  0.0227  0.7694  -6.8906   0.0000   0.2893
  20.800   1.9010   0.20998   0.20709  -0.1891  0.0224  0.7703  -6.9291   0.0000   0.2897
  21.000   1.8950   0.21288   0.21005  -0.1919  0.0220  0.7711  -6.9420   0.0000   0.2906
  21.200   1.8923   0.21521   0.21241  -0.1942  0.0215  0.7718  -6.9759   0.0000   0.2911
  21.400   1.8890   0.21766   0.21490  -0.1966  0.0211  0.7726  -7.0049   0.0000   0.2918
  21.600   1.8832   0.22059   0.21787  -0.1996  0.0207  0.7733  -7.0151   0.0000   0.2928
  21.800   1.8801   0.22301   0.22033  -0.2021  0.0202  0.7741  -7.0441   0.0000   0.2935
  22.000   1.8775   0.22540   0.22276  -0.2045  0.0199  0.7749  -7.0743   0.0000   0.2941
  22.200   1.8742   0.22790   0.22529  -0.2072  0.0195  0.7757  -7.0996   0.0000   0.2949
  22.400   1.8727   0.23008   0.22750  -0.2095  0.0190  0.7765  -7.1369   0.0000   0.2953
  22.600   1.8696   0.23256   0.23002  -0.2122  0.0186  0.7773  -7.1614   0.0000   0.2961
  22.800   1.8652   0.23528   0.23277  -0.2152  0.0181  0.7780  -7.1751   0.0000   0.2971
  23.000   1.8629   0.23760   0.23512  -0.2178  0.0177  0.7788  -7.2041   0.0000   0.2977
  23.200   1.8610   0.23986   0.23741  -0.2204  0.0174  0.7796  -7.2352   0.0000   0.2983
  23.400   1.8582   0.24229   0.23988  -0.2232  0.0170  0.7803  -7.2581   0.0000   0.2991
  23.600   1.8574   0.24434   0.24196  -0.2255  0.0166  0.7811  -7.2964   0.0000   0.2996
  23.800   1.8559   0.24651   0.24415  -0.2281  0.0163  0.7818  -7.3287   0.0000   0.3001
  24.000   1.8515   0.24916   0.24684  -0.2312  0.0160  0.7824  -7.3362   0.0000   0.3012
  24.200   1.8493   0.25119   0.24890  -0.2336  0.0156  0.7832  -7.3644   0.0000   0.3017
  24.400   1.8469   0.25325   0.25099  -0.2360  0.0153  0.7839  -7.3900   0.0000   0.3023
  24.600   1.8433   0.25557   0.25336  -0.2388  0.0151  0.7846  -7.4029   0.0000   0.3031
  24.800   1.8421   0.25736   0.25518  -0.2409  0.0149  0.7852  -7.4385   0.0000   0.3034
  25.000   1.8411   0.25912   0.25697  -0.2430  0.0146  0.7858  -7.4745   0.0000   0.3037


