xflr5 v6.47

 Calculated polar for: NACA24018_theta30_Ku4.5_Kl0.5_d0.00_delta0.00

 1 1 Reynolds number fixed          Mach number fixed         

 xtrf =   1.000 (top)        1.000 (bottom)
 Mach =   0.000     Re =     1.400 e 6     Ncrit =   5.000

  alpha     CL        CD       CDp       Cm    Top Xtr Bot Xtr   Cpmin    Chinge    XCp    
 ------- -------- --------- --------- -------- ------- ------- -------- --------- ---------
 -15.000  -1.2223   0.02275   0.01744  -0.0609  1.0000  0.0231  -7.5497   0.0000   0.1776
 -14.800  -1.2145   0.02217   0.01683  -0.0593  1.0000  0.0233  -7.4436   0.0000   0.1789
 -14.600  -1.2082   0.02155   0.01618  -0.0575  1.0000  0.0235  -7.3442   0.0000   0.1806
 -14.400  -1.2017   0.02098   0.01560  -0.0556  1.0000  0.0238  -7.2442   0.0000   0.1823
 -14.200  -1.1953   0.02045   0.01506  -0.0535  1.0000  0.0240  -7.1439   0.0000   0.1841
 -14.000  -1.1890   0.01998   0.01456  -0.0514  1.0000  0.0242  -7.0444   0.0000   0.1860
 -13.800  -1.1832   0.01953   0.01410  -0.0490  1.0000  0.0245  -6.9465   0.0000   0.1881
 -13.600  -1.1637   0.01904   0.01359  -0.0493  0.9994  0.0248  -6.7996   0.0000   0.1875
 -13.400  -1.1429   0.01857   0.01311  -0.0497  0.9985  0.0251  -6.6493   0.0000   0.1866
 -13.200  -1.1218   0.01812   0.01265  -0.0502  0.9972  0.0255  -6.4989   0.0000   0.1856
 -13.000  -1.1009   0.01770   0.01221  -0.0506  0.9952  0.0259  -6.3501   0.0000   0.1847
 -12.800  -1.0815   0.01729   0.01179  -0.0505  0.9933  0.0262  -6.2080   0.0000   0.1841
 -12.600  -1.0615   0.01690   0.01138  -0.0506  0.9913  0.0265  -6.0675   0.0000   0.1834
 -12.400  -1.0412   0.01647   0.01095  -0.0508  0.9893  0.0269  -5.9301   0.0000   0.1825
 -12.200  -1.0197   0.01608   0.01055  -0.0512  0.9876  0.0274  -5.7895   0.0000   0.1813
 -12.000  -1.0020   0.01572   0.01018  -0.0507  0.9839  0.0278  -5.6621   0.0000   0.1811
 -11.800  -0.9814   0.01536   0.00983  -0.0508  0.9808  0.0282  -5.5265   0.0000   0.1802
 -11.600  -0.9596   0.01502   0.00948  -0.0511  0.9783  0.0287  -5.3881   0.0000   0.1789
 -11.400  -0.9396   0.01471   0.00916  -0.0509  0.9736  0.0291  -5.2571   0.0000   0.1782
 -11.200  -0.9153   0.01440   0.00883  -0.0516  0.9707  0.0295  -5.1136   0.0000   0.1761
 -11.000  -0.8909   0.01409   0.00851  -0.0524  0.9671  0.0300  -4.9717   0.0000   0.1739
 -10.800  -0.8652   0.01375   0.00818  -0.0534  0.9627  0.0307  -4.8271   0.0000   0.1711
 -10.600  -0.8346   0.01342   0.00785  -0.0554  0.9596  0.0314  -4.6695   0.0000   0.1665
 -10.400  -0.8024   0.01310   0.00754  -0.0577  0.9548  0.0322  -4.5117   0.0000   0.1609
 -10.200  -0.7676   0.01280   0.00723  -0.0606  0.9490  0.0329  -4.3523   0.0000   0.1539
 -10.000  -0.7341   0.01252   0.00693  -0.0631  0.9409  0.0335  -4.1986   0.0000   0.1468
  -9.800  -0.7024   0.01222   0.00661  -0.0654  0.9308  0.0344  -4.0521   0.0000   0.1397
  -9.600  -0.6747   0.01198   0.00634  -0.0667  0.9170  0.0352  -3.9175   0.0000   0.1339
  -9.400  -0.6523   0.01180   0.00610  -0.0669  0.8987  0.0360  -3.7984   0.0000   0.1303
  -9.200  -0.6351   0.01167   0.00589  -0.0659  0.8767  0.0367  -3.6943   0.0000   0.1292
  -9.000  -0.6213   0.01158   0.00570  -0.0641  0.8528  0.0373  -3.5996   0.0000   0.1299
  -8.800  -0.6091   0.01147   0.00551  -0.0621  0.8291  0.0380  -3.5102   0.0000   0.1314
  -8.600  -0.5975   0.01137   0.00532  -0.0599  0.8066  0.0388  -3.4257   0.0000   0.1333
  -8.400  -0.5851   0.01127   0.00516  -0.0578  0.7858  0.0396  -3.3405   0.0000   0.1349
  -8.200  -0.5724   0.01118   0.00500  -0.0558  0.7664  0.0404  -3.2555   0.0000   0.1364
  -8.000  -0.5590   0.01109   0.00484  -0.0539  0.7491  0.0412  -3.1697   0.0000   0.1375
  -7.800  -0.5450   0.01101   0.00470  -0.0522  0.7328  0.0418  -3.0832   0.0000   0.1384
  -7.600  -0.5317   0.01091   0.00455  -0.0503  0.7171  0.0429  -2.9991   0.0000   0.1397
  -7.400  -0.5181   0.01083   0.00443  -0.0485  0.7016  0.0440  -2.9150   0.0000   0.1410
  -7.200  -0.5043   0.01077   0.00432  -0.0466  0.6868  0.0451  -2.8310   0.0000   0.1421
  -7.000  -0.4899   0.01072   0.00422  -0.0449  0.6721  0.0462  -2.7467   0.0000   0.1430
  -6.800  -0.4748   0.01065   0.00411  -0.0434  0.6577  0.0472  -2.6618   0.0000   0.1435
  -6.600  -0.4589   0.01057   0.00399  -0.0420  0.6437  0.0486  -2.5759   0.0000   0.1434
  -6.400  -0.4425   0.01050   0.00388  -0.0407  0.6298  0.0501  -2.4923   0.0000   0.1430
  -6.200  -0.4257   0.01045   0.00378  -0.0395  0.6157  0.0515  -2.4098   0.0000   0.1422
  -6.000  -0.4089   0.01038   0.00368  -0.0383  0.6020  0.0530  -2.3285   0.0000   0.1414
  -5.800  -0.3917   0.01031   0.00358  -0.0372  0.5898  0.0547  -2.2471   0.0000   0.1402
  -5.600  -0.3740   0.01025   0.00348  -0.0361  0.5782  0.0564  -2.1657   0.0000   0.1385
  -5.400  -0.3562   0.01019   0.00339  -0.0351  0.5666  0.0580  -2.0850   0.0000   0.1365
  -5.200  -0.3388   0.01012   0.00330  -0.0340  0.5545  0.0603  -2.0073   0.0000   0.1346
  -5.000  -0.3211   0.01008   0.00322  -0.0330  0.5412  0.0626  -1.9320   0.0000   0.1322
  -4.800  -0.3032   0.01005   0.00314  -0.0320  0.5270  0.0646  -1.8574   0.0000   0.1295
  -4.600  -0.2856   0.01000   0.00306  -0.0309  0.5132  0.0672  -1.7842   0.0000   0.1265
  -4.400  -0.2673   0.00996   0.00299  -0.0300  0.5003  0.0697  -1.7129   0.0000   0.1225
  -4.200  -0.2490   0.00992   0.00292  -0.0291  0.4888  0.0725  -1.6434   0.0000   0.1177
  -4.000  -0.2306   0.00986   0.00285  -0.0282  0.4787  0.0761  -1.5747   0.0000   0.1121
  -3.800  -0.2120   0.00983   0.00279  -0.0273  0.4684  0.0793  -1.5064   0.0000   0.1051
  -3.600  -0.1936   0.00978   0.00273  -0.0264  0.4578  0.0835  -1.4393   0.0000   0.0972
  -3.400  -0.1748   0.00975   0.00267  -0.0256  0.4473  0.0877  -1.3728   0.0000   0.0867
  -3.200  -0.1565   0.00970   0.00262  -0.0247  0.4367  0.0931  -1.3107   0.0000   0.0749
  -3.000  -0.1379   0.00968   0.00257  -0.0238  0.4259  0.0980  -1.2488   0.0000   0.0592
  -2.800  -0.1192   0.00963   0.00252  -0.0230  0.4162  0.1046  -1.1876   0.0000   0.0381
  -2.600  -0.1007   0.00958   0.00247  -0.0221  0.4076  0.1121  -1.1274   0.0000   0.0097
  -2.200  -0.0634   0.00950   0.00238  -0.0204  0.3890  0.1297  -1.0126   0.0000  -0.0979
  -2.000  -0.0452   0.00944   0.00234  -0.0195  0.3804  0.1422  -0.9580   0.0000  -0.2125
  -1.800  -0.0271   0.00936   0.00230  -0.0185  0.3725  0.1578  -0.9047   0.0000  -0.4786
  -1.600  -0.0092   0.00927   0.00225  -0.0176  0.3659  0.1775  -0.8545   0.0000  -1.7613
  -1.400   0.0075   0.00913   0.00219  -0.0164  0.3588  0.2088  -0.8065   0.0000   2.5526
  -1.200   0.0212   0.00885   0.00209  -0.0147  0.3525  0.2655  -0.7743   0.0000   0.9691
  -1.000   0.0346   0.00856   0.00201  -0.0129  0.3464  0.3301  -0.7925   0.0000   0.6333
  -0.800   0.0500   0.00839   0.00197  -0.0114  0.3403  0.3746  -0.8120   0.0000   0.4824
  -0.600   0.0669   0.00824   0.00194  -0.0102  0.3357  0.4113  -0.8335   0.0000   0.4030
  -0.400   0.0846   0.00816   0.00193  -0.0092  0.3304  0.4385  -0.8557   0.0000   0.3563
  -0.200   0.1027   0.00811   0.00192  -0.0082  0.3253  0.4599  -0.8782   0.0000   0.3261
   0.000   0.1212   0.00806   0.00192  -0.0074  0.3205  0.4818  -0.9011   0.0000   0.3054
   0.200   0.1391   0.00801   0.00193  -0.0064  0.3153  0.5047  -0.9237   0.0000   0.2895
   0.400   0.1577   0.00799   0.00193  -0.0055  0.3111  0.5228  -0.9471   0.0000   0.2780
   0.600   0.1766   0.00795   0.00194  -0.0047  0.3077  0.5408  -0.9717   0.0000   0.2691
   0.800   0.1947   0.00790   0.00195  -0.0037  0.3039  0.5627  -0.9958   0.0000   0.2611
   1.000   0.2127   0.00788   0.00197  -0.0027  0.2998  0.5838  -1.0199   0.0000   0.2545
   1.200   0.2307   0.00784   0.00199  -0.0017  0.2964  0.6045  -1.0442   0.0000   0.2488
   1.400   0.2487   0.00780   0.00201  -0.0007  0.2930  0.6270  -1.0686   0.0000   0.2439
   1.600   0.2665   0.00778   0.00204   0.0003  0.2895  0.6467  -1.0929   0.0000   0.2395
   1.800   0.2853   0.00780   0.00207   0.0012  0.2861  0.6592  -1.1182   0.0000   0.2364
   2.000   0.3046   0.00782   0.00210   0.0019  0.2833  0.6691  -1.1450   0.0000   0.2341
   2.200   0.3240   0.00783   0.00213   0.0026  0.2804  0.6791  -1.1720   0.0000   0.2320
   2.400   0.3432   0.00785   0.00217   0.0033  0.2769  0.6893  -1.1990   0.0000   0.2301
   2.600   0.3618   0.00789   0.00221   0.0042  0.2733  0.7002  -1.2269   0.0000   0.2281
   2.800   0.3804   0.00791   0.00226   0.0051  0.2704  0.7107  -1.2549   0.0000   0.2262
   3.000   0.3996   0.00793   0.00230   0.0058  0.2679  0.7209  -1.2835   0.0000   0.2247
   3.200   0.4185   0.00796   0.00234   0.0066  0.2648  0.7316  -1.3121   0.0000   0.2233
   3.400   0.4366   0.00799   0.00239   0.0076  0.2615  0.7425  -1.3401   0.0000   0.2216
   3.600   0.4544   0.00804   0.00245   0.0086  0.2584  0.7537  -1.3685   0.0000   0.2198
   3.800   0.4727   0.00806   0.00250   0.0095  0.2564  0.7654  -1.3983   0.0000   0.2184
   4.200   0.5088   0.00812   0.00261   0.0114  0.2512  0.7883  -1.4580   0.0000   0.2157
   4.400   0.5262   0.00816   0.00268   0.0125  0.2481  0.7994  -1.4874   0.0000   0.2142
   4.600   0.5427   0.00821   0.00275   0.0138  0.2450  0.8108  -1.5162   0.0000   0.2123
   4.800   0.5596   0.00824   0.00280   0.0150  0.2431  0.8224  -1.5458   0.0000   0.2107
   5.000   0.5761   0.00826   0.00286   0.0163  0.2411  0.8344  -1.5763   0.0000   0.2091
   5.200   0.5924   0.00830   0.00293   0.0176  0.2385  0.8463  -1.6067   0.0000   0.2074
   5.400   0.6089   0.00835   0.00302   0.0188  0.2356  0.8580  -1.6374   0.0000   0.2059
   5.600   0.6254   0.00843   0.00311   0.0201  0.2325  0.8701  -1.6682   0.0000   0.2046
   5.800   0.6431   0.00849   0.00321   0.0211  0.2303  0.8823  -1.7002   0.0000   0.2037
   6.000   0.6617   0.00856   0.00331   0.0218  0.2282  0.8943  -1.7332   0.0000   0.2032
   6.200   0.6815   0.00864   0.00341   0.0223  0.2257  0.9059  -1.7693   0.0000   0.2033
   6.400   0.7030   0.00875   0.00354   0.0224  0.2227  0.9162  -1.8088   0.0000   0.2040
   6.600   0.7260   0.00888   0.00368   0.0222  0.2193  0.9253  -1.8499   0.0000   0.2051
   7.000   0.7797   0.00913   0.00395   0.0200  0.2141  0.9405  -1.9408   0.0000   0.2097
   7.200   0.8067   0.00928   0.00409   0.0189  0.2110  0.9471  -1.9868   0.0000   0.2119
   7.400   0.8372   0.00946   0.00426   0.0169  0.2079  0.9514  -2.0369   0.0000   0.2149
   7.600   0.8652   0.00962   0.00442   0.0155  0.2054  0.9561  -2.0865   0.0000   0.2170
   7.800   0.8943   0.00978   0.00457   0.0139  0.2028  0.9593  -2.1388   0.0000   0.2192
   8.000   0.9247   0.00996   0.00474   0.0120  0.1994  0.9614  -2.1942   0.0000   0.2216
   8.200   0.9525   0.01016   0.00492   0.0106  0.1960  0.9643  -2.2469   0.0000   0.2233
   8.400   0.9756   0.01033   0.00509   0.0102  0.1934  0.9686  -2.2946   0.0000   0.2237
   8.600   1.0030   0.01050   0.00526   0.0089  0.1909  0.9702  -2.3490   0.0000   0.2250
   8.800   1.0284   0.01068   0.00543   0.0080  0.1882  0.9722  -2.4022   0.0000   0.2259
   9.000   1.0506   0.01089   0.00562   0.0078  0.1852  0.9753  -2.4519   0.0000   0.2260
   9.200   1.0703   0.01110   0.00582   0.0081  0.1822  0.9788  -2.4988   0.0000   0.2256
   9.400   1.0946   0.01127   0.00600   0.0074  0.1801  0.9803  -2.5518   0.0000   0.2261
   9.600   1.1179   0.01147   0.00620   0.0069  0.1774  0.9822  -2.6094   0.0000   0.2264
   9.800   1.1390   0.01170   0.00642   0.0068  0.1739  0.9850  -2.6655   0.0000   0.2264
  10.000   1.1590   0.01196   0.00665   0.0069  0.1704  0.9877  -2.7204   0.0000   0.2261
  10.200   1.1831   0.01215   0.00685   0.0062  0.1678  0.9889  -2.7816   0.0000   0.2265
  10.400   1.2061   0.01238   0.00707   0.0056  0.1648  0.9903  -2.8418   0.0000   0.2268
  10.600   1.2278   0.01265   0.00732   0.0053  0.1616  0.9919  -2.9075   0.0000   0.2269
  10.800   1.2488   0.01291   0.00758   0.0051  0.1587  0.9937  -2.9726   0.0000   0.2268
  11.000   1.2697   0.01316   0.00783   0.0050  0.1557  0.9953  -3.0381   0.0000   0.2267
  11.200   1.2914   0.01346   0.00812   0.0045  0.1515  0.9968  -3.1052   0.0000   0.2268
  11.400   1.3129   0.01378   0.00842   0.0041  0.1480  0.9981  -3.1725   0.0000   0.2268
  11.600   1.3356   0.01404   0.00868   0.0035  0.1457  0.9990  -3.2422   0.0000   0.2270
  11.800   1.3578   0.01433   0.00898   0.0029  0.1430  0.9998  -3.3131   0.0000   0.2271
  12.000   1.3702   0.01463   0.00928   0.0043  0.1404  1.0000  -3.3752   0.0000   0.2258
  12.200   1.3765   0.01496   0.00960   0.0068  0.1378  1.0000  -3.4266   0.0000   0.2237
  12.400   1.3852   0.01524   0.00989   0.0089  0.1356  1.0000  -3.4829   0.0000   0.2218
  12.600   1.3934   0.01558   0.01023   0.0110  0.1326  1.0000  -3.5383   0.0000   0.2200
  12.800   1.4002   0.01600   0.01064   0.0131  0.1292  1.0000  -3.5914   0.0000   0.2181
  13.000   1.4083   0.01641   0.01105   0.0151  0.1265  1.0000  -3.6496   0.0000   0.2164
  13.200   1.4178   0.01679   0.01145   0.0167  0.1241  1.0000  -3.7134   0.0000   0.2149
  13.400   1.4262   0.01725   0.01191   0.0185  0.1213  1.0000  -3.7766   0.0000   0.2134
  13.600   1.4333   0.01779   0.01245   0.0203  0.1183  1.0000  -3.8370   0.0000   0.2118
  13.800   1.4424   0.01828   0.01295   0.0218  0.1161  1.0000  -3.9020   0.0000   0.2104
  14.000   1.4511   0.01881   0.01349   0.0233  0.1134  1.0000  -3.9668   0.0000   0.2091
  14.200   1.4580   0.01946   0.01415   0.0249  0.1102  1.0000  -4.0294   0.0000   0.2077
  14.400   1.4648   0.02016   0.01484   0.0263  0.1074  1.0000  -4.0921   0.0000   0.2063
  14.600   1.4733   0.02080   0.01550   0.0276  0.1050  1.0000  -4.1589   0.0000   0.2052
  14.800   1.4801   0.02156   0.01627   0.0289  0.1021  1.0000  -4.2224   0.0000   0.2040
  15.000   1.4854   0.02246   0.01717   0.0302  0.0993  1.0000  -4.2837   0.0000   0.2027
  15.200   1.4931   0.02324   0.01798   0.0312  0.0972  1.0000  -4.3514   0.0000   0.2017
  15.400   1.4998   0.02413   0.01888   0.0322  0.0948  1.0000  -4.4166   0.0000   0.2007
  15.600   1.5044   0.02519   0.01995   0.0333  0.0921  1.0000  -4.4772   0.0000   0.1996
  15.800   1.5089   0.02630   0.02108   0.0342  0.0898  1.0000  -4.5388   0.0000   0.1985
  16.000   1.5146   0.02737   0.02218   0.0350  0.0876  1.0000  -4.6036   0.0000   0.1976
  16.200   1.5182   0.02863   0.02346   0.0358  0.0851  1.0000  -4.6628   0.0000   0.1967
  16.400   1.5198   0.03011   0.02495   0.0366  0.0827  1.0000  -4.7162   0.0000   0.1957
  16.600   1.5237   0.03145   0.02632   0.0371  0.0808  1.0000  -4.7782   0.0000   0.1949
  16.800   1.5263   0.03294   0.02784   0.0376  0.0786  1.0000  -4.8361   0.0000   0.1941
  17.000   1.5263   0.03470   0.02963   0.0381  0.0763  1.0000  -4.8871   0.0000   0.1933
  17.200   1.5257   0.03659   0.03154   0.0384  0.0743  1.0000  -4.9367   0.0000   0.1926
  17.400   1.5266   0.03838   0.03338   0.0386  0.0726  1.0000  -4.9909   0.0000   0.1919
  17.600   1.5252   0.04044   0.03547   0.0387  0.0706  1.0000  -5.0375   0.0000   0.1913
  17.800   1.5212   0.04281   0.03788   0.0387  0.0687  1.0000  -5.0749   0.0000   0.1906
  18.000   1.5177   0.04520   0.04031   0.0387  0.0671  1.0000  -5.1135   0.0000   0.1901
  18.200   1.5144   0.04761   0.04277   0.0385  0.0656  1.0000  -5.1540   0.0000   0.1896
  18.400   1.5089   0.05031   0.04552   0.0382  0.0640  1.0000  -5.1864   0.0000   0.1891
  18.600   1.5012   0.05331   0.04857   0.0377  0.0625  1.0000  -5.2104   0.0000   0.1887
  18.800   1.4917   0.05656   0.05187   0.0372  0.0612  1.0000  -5.2271   0.0000   0.1883
  19.000   1.4846   0.05959   0.05496   0.0366  0.0601  1.0000  -5.2519   0.0000   0.1880
  19.200   1.4758   0.06288   0.05833   0.0359  0.0589  1.0000  -5.2694   0.0000   0.1877
  19.400   1.4650   0.06645   0.06195   0.0350  0.0577  1.0000  -5.2788   0.0000   0.1875
  19.600   1.4523   0.07028   0.06585   0.0340  0.0566  1.0000  -5.2800   0.0000   0.1873
  19.800   1.4376   0.07445   0.07008   0.0329  0.0555  1.0000  -5.2722   0.0000   0.1873
  20.000   1.4245   0.07846   0.07416   0.0317  0.0546  1.0000  -5.2692   0.0000   0.1873
  20.200   1.4127   0.08235   0.07812   0.0305  0.0537  1.0000  -5.2699   0.0000   0.1873
  20.400   1.3995   0.08646   0.08230   0.0292  0.0527  1.0000  -5.2644   0.0000   0.1874
  20.600   1.3855   0.09074   0.08665   0.0278  0.0517  1.0000  -5.2539   0.0000   0.1877
  20.800   1.3703   0.09520   0.09116   0.0262  0.0507  1.0000  -5.2374   0.0000   0.1879
  21.000   1.3551   0.09972   0.09574   0.0246  0.0497  1.0000  -5.2194   0.0000   0.1883
  21.200   1.3434   0.10383   0.09991   0.0230  0.0489  1.0000  -5.2140   0.0000   0.1887
  21.400   1.3317   0.10795   0.10410   0.0214  0.0480  1.0000  -5.2072   0.0000   0.1892
  21.600   1.3205   0.11203   0.10823   0.0198  0.0470  1.0000  -5.2013   0.0000   0.1897
  21.800   1.3102   0.11603   0.11227   0.0181  0.0460  1.0000  -5.1978   0.0000   0.1903
  22.000   1.2976   0.12041   0.11671   0.0162  0.0451  1.0000  -5.1826   0.0000   0.1910
  22.200   1.2876   0.12442   0.12076   0.0144  0.0442  1.0000  -5.1774   0.0000   0.1917
  22.400   1.2811   0.12793   0.12431   0.0127  0.0435  1.0000  -5.1868   0.0000   0.1924
  22.600   1.2746   0.13148   0.12791   0.0110  0.0426  1.0000  -5.1957   0.0000   0.1931
  22.800   1.2674   0.13516   0.13163   0.0091  0.0417  1.0000  -5.2008   0.0000   0.1939
  23.000   1.2598   0.13893   0.13545   0.0072  0.0408  1.0000  -5.2026   0.0000   0.1948
  23.200   1.2520   0.14273   0.13928   0.0051  0.0399  1.0000  -5.2023   0.0000   0.1958
  23.400   1.2488   0.14583   0.14241   0.0034  0.0391  1.0000  -5.2231   0.0000   0.1965
  23.600   1.2438   0.14924   0.14587   0.0015  0.0383  1.0000  -5.2336   0.0000   0.1975
  23.800   1.2411   0.15229   0.14895  -0.0003  0.0373  1.0000  -5.2553   0.0000   0.1983
  24.000   1.2346   0.15598   0.15267  -0.0025  0.0365  1.0000  -5.2576   0.0000   0.1995
  24.200   1.2304   0.15932   0.15603  -0.0045  0.0356  1.0000  -5.2705   0.0000   0.2005
  24.400   1.2284   0.16229   0.15904  -0.0064  0.0349  1.0000  -5.2947   0.0000   0.2014
  24.600   1.2253   0.16547   0.16225  -0.0084  0.0342  1.0000  -5.3111   0.0000   0.2025
  24.800   1.2239   0.16833   0.16514  -0.0103  0.0334  1.0000  -5.3384   0.0000   0.2034
  25.000   1.2204   0.17158   0.16842  -0.0125  0.0326  1.0000  -5.3525   0.0000   0.2046


