xflr5 v6.47

 Calculated polar for: NACA24018_theta30_Ku4.5_Kl0.5_d0.14_delta3.44

 1 1 Reynolds number fixed          Mach number fixed         

 xtrf =   1.000 (top)        1.000 (bottom)
 Mach =   0.000     Re =     0.200 e 6     Ncrit =   5.000

  alpha     CL        CD       CDp       Cm    Top Xtr Bot Xtr   Cpmin    Chinge    XCp    
 ------- -------- --------- --------- -------- ------- ------- -------- --------- ---------
 -15.000  -0.8503   0.05426   0.04807  -0.0765  0.9943  0.0438  -5.5367   0.0000   0.1349
 -14.800  -0.8502   0.05277   0.04650  -0.0763  0.9939  0.0442  -5.4929   0.0000   0.1355
 -14.600  -0.8497   0.05148   0.04511  -0.0761  0.9935  0.0447  -5.4481   0.0000   0.1362
 -14.400  -0.8506   0.05014   0.04367  -0.0753  0.9932  0.0451  -5.4071   0.0000   0.1376
 -14.200  -0.8534   0.04837   0.04180  -0.0739  0.9928  0.0455  -5.3715   0.0000   0.1402
 -14.000  -0.8543   0.04682   0.04014  -0.0727  0.9919  0.0460  -5.3304   0.0000   0.1421
 -13.800  -0.8532   0.04554   0.03872  -0.0718  0.9908  0.0464  -5.2835   0.0000   0.1435
 -13.600  -0.8466   0.04481   0.03796  -0.0713  0.9899  0.0469  -5.2083   0.0000   0.1438
 -13.400  -0.8395   0.04440   0.03755  -0.0707  0.9892  0.0473  -5.1298   0.0000   0.1441
 -13.200  -0.8398   0.04315   0.03629  -0.0686  0.9880  0.0477  -5.0756   0.0000   0.1471
 -13.000  -0.8333   0.04247   0.03558  -0.0678  0.9862  0.0482  -5.0009   0.0000   0.1477
 -12.800  -0.8252   0.04213   0.03520  -0.0673  0.9850  0.0488  -4.9228   0.0000   0.1479
 -12.600  -0.8240   0.04105   0.03407  -0.0653  0.9824  0.0493  -4.8672   0.0000   0.1505
 -11.800  -0.7787   0.03853   0.03127  -0.0636  0.9659  0.0522  -4.5294   0.0000   0.1491
 -11.600  -0.7628   0.03782   0.03055  -0.0637  0.9603  0.0529  -4.4266   0.0000   0.1475
 -11.400  -0.7482   0.03706   0.02977  -0.0635  0.9552  0.0538  -4.3290   0.0000   0.1464
 -11.200  -0.7331   0.03633   0.02899  -0.0632  0.9507  0.0547  -4.2330   0.0000   0.1452
 -11.000  -0.7141   0.03575   0.02833  -0.0636  0.9478  0.0560  -4.1333   0.0000   0.1425
 -10.800  -0.6994   0.03495   0.02745  -0.0631  0.9430  0.0570  -4.0474   0.0000   0.1415
 -10.600  -0.6787   0.03441   0.02693  -0.0637  0.9407  0.0580  -3.9378   0.0000   0.1379
 -10.400  -0.6645   0.03363   0.02615  -0.0631  0.9355  0.0589  -3.8477   0.0000   0.1370
 -10.200  -0.6460   0.03298   0.02548  -0.0632  0.9320  0.0601  -3.7485   0.0000   0.1342
 -10.000  -0.6273   0.03233   0.02479  -0.0632  0.9281  0.0615  -3.6513   0.0000   0.1314
  -9.800  -0.6089   0.03167   0.02406  -0.0631  0.9240  0.0629  -3.5566   0.0000   0.1286
  -9.600  -0.5892   0.03101   0.02344  -0.0634  0.9203  0.0642  -3.4536   0.0000   0.1247
  -9.400  -0.5716   0.03033   0.02277  -0.0632  0.9153  0.0656  -3.3579   0.0000   0.1218
  -9.200  -0.5496   0.02974   0.02215  -0.0637  0.9118  0.0673  -3.2538   0.0000   0.1165
  -9.000  -0.5330   0.02908   0.02144  -0.0631  0.9057  0.0690  -3.1657   0.0000   0.1140
  -8.600  -0.4933   0.02782   0.02023  -0.0634  0.8950  0.0724  -2.9741   0.0000   0.1040
  -8.400  -0.4739   0.02726   0.01965  -0.0633  0.8887  0.0745  -2.8844   0.0000   0.0989
  -8.200  -0.4497   0.02671   0.01908  -0.0639  0.8848  0.0768  -2.7851   0.0000   0.0900
  -8.000  -0.4279   0.02616   0.01857  -0.0643  0.8791  0.0789  -2.6898   0.0000   0.0818
  -7.800  -0.4024   0.02564   0.01805  -0.0652  0.8750  0.0817  -2.5881   0.0000   0.0698
  -7.600  -0.3749   0.02510   0.01750  -0.0663  0.8720  0.0848  -2.4850   0.0000   0.0543
  -7.400  -0.3529   0.02462   0.01706  -0.0667  0.8647  0.0876  -2.3966   0.0000   0.0420
  -7.200  -0.3246   0.02411   0.01652  -0.0678  0.8611  0.0916  -2.2977   0.0000   0.0212
  -7.000  -0.3014   0.02364   0.01610  -0.0683  0.8531  0.0951  -2.2093   0.0000   0.0028
  -6.800  -0.2727   0.02312   0.01558  -0.0696  0.8483  0.0997  -2.1111   0.0000  -0.0267
  -6.600  -0.2474   0.02271   0.01519  -0.0704  0.8402  0.1042  -2.0210   0.0000  -0.0571
  -6.400  -0.2176   0.02222   0.01471  -0.0718  0.8348  0.1101  -1.9241   0.0000  -0.1046
  -6.200  -0.1891   0.02179   0.01432  -0.0732  0.8275  0.1164  -1.8346   0.0000  -0.1636
  -6.000  -0.1583   0.02134   0.01388  -0.0748  0.8209  0.1244  -1.7421   0.0000  -0.2527
  -5.800  -0.1254   0.02085   0.01342  -0.0769  0.8142  0.1344  -1.6472   0.0000  -0.3984
  -5.600  -0.0917   0.02036   0.01298  -0.0791  0.8058  0.1471  -1.5521   0.0000  -0.6589
  -5.400  -0.0537   0.01979   0.01248  -0.0821  0.7983  0.1655  -1.4562   0.0000  -1.3516
  -5.200  -0.0130   0.01919   0.01199  -0.0858  0.7888  0.1949  -1.3576   0.0000  -6.6404
  -5.000   0.0421   0.01832   0.01150  -0.0927  0.7790  0.2782  -1.2416   0.0000   2.5343
  -4.800   0.1141   0.01744   0.01113  -0.1028  0.7671  0.4183  -1.1051   0.0000   1.1777
  -4.400   0.2113   0.01659   0.01030  -0.1123  0.7310  0.5016  -0.9097   0.0000   0.7937
  -4.200   0.2508   0.01638   0.01002  -0.1154  0.7090  0.5261  -0.8323   0.0000   0.7192
  -4.000   0.2864   0.01628   0.00982  -0.1177  0.6864  0.5462  -0.8211   0.0000   0.6681
  -3.800   0.3174   0.01629   0.00974  -0.1192  0.6643  0.5653  -0.8504   0.0000   0.6311
  -3.600   0.3453   0.01637   0.00972  -0.1200  0.6426  0.5824  -0.8777   0.0000   0.6022
  -3.400   0.3684   0.01650   0.00978  -0.1200  0.6219  0.5968  -0.9030   0.0000   0.5793
  -3.200   0.3891   0.01665   0.00986  -0.1194  0.6027  0.6100  -0.9270   0.0000   0.5598
  -3.000   0.4096   0.01682   0.00998  -0.1189  0.5847  0.6240  -0.9518   0.0000   0.5423
  -2.800   0.4320   0.01702   0.01009  -0.1188  0.5669  0.6371  -0.9783   0.0000   0.5263
  -2.600   0.4483   0.01720   0.01020  -0.1174  0.5505  0.6457  -1.0006   0.0000   0.5127
  -2.400   0.4725   0.01740   0.01028  -0.1178  0.5333  0.6533  -1.0285   0.0000   0.4994
  -2.200   0.4853   0.01757   0.01039  -0.1157  0.5186  0.6578  -1.0484   0.0000   0.4882
  -2.000   0.5038   0.01775   0.01050  -0.1149  0.5037  0.6636  -1.0723   0.0000   0.4773
  -1.800   0.5294   0.01797   0.01061  -0.1156  0.4885  0.6704  -1.1014   0.0000   0.4671
  -1.600   0.5407   0.01813   0.01073  -0.1133  0.4766  0.6742  -1.1204   0.0000   0.4579
  -1.400   0.5563   0.01833   0.01086  -0.1119  0.4647  0.6792  -1.1428   0.0000   0.4491
  -1.200   0.5794   0.01855   0.01100  -0.1121  0.4524  0.6857  -1.1718   0.0000   0.4410
  -1.000   0.5951   0.01873   0.01114  -0.1107  0.4426  0.6904  -1.1953   0.0000   0.4332
  -0.800   0.6077   0.01892   0.01129  -0.1087  0.4333  0.6948  -1.2164   0.0000   0.4257
  -0.600   0.6267   0.01913   0.01146  -0.1080  0.4237  0.7003  -1.2432   0.0000   0.4189
  -0.400   0.6497   0.01939   0.01163  -0.1082  0.4142  0.7063  -1.2740   0.0000   0.4127
  -0.200   0.6593   0.01955   0.01179  -0.1056  0.4064  0.7098  -1.2941   0.0000   0.4060
   0.000   0.6726   0.01976   0.01196  -0.1038  0.3989  0.7140  -1.3172   0.0000   0.3998
   0.200   0.6933   0.01999   0.01215  -0.1035  0.3911  0.7193  -1.3463   0.0000   0.3945
   0.400   0.7140   0.02024   0.01235  -0.1033  0.3836  0.7243  -1.3756   0.0000   0.3895
   0.600   0.7227   0.02043   0.01253  -0.1005  0.3780  0.7275  -1.3955   0.0000   0.3837
   0.800   0.7357   0.02063   0.01272  -0.0986  0.3717  0.7315  -1.4198   0.0000   0.3784
   1.000   0.7550   0.02089   0.01294  -0.0981  0.3656  0.7365  -1.4496   0.0000   0.3740
   1.200   0.7783   0.02116   0.01317  -0.0984  0.3599  0.7416  -1.4830   0.0000   0.3702
   1.400   0.7863   0.02133   0.01336  -0.0955  0.3553  0.7443  -1.5032   0.0000   0.3650
   1.600   0.7969   0.02156   0.01357  -0.0932  0.3506  0.7476  -1.5257   0.0000   0.3602
   1.800   0.8127   0.02183   0.01380  -0.0921  0.3460  0.7517  -1.5530   0.0000   0.3562
   2.000   0.8412   0.02212   0.01408  -0.0934  0.3402  0.7572  -1.5930   0.0000   0.3537
   2.200   0.8516   0.02234   0.01431  -0.0911  0.3359  0.7600  -1.6168   0.0000   0.3494
   2.400   0.8595   0.02258   0.01453  -0.0883  0.3322  0.7625  -1.6384   0.0000   0.3449
   2.600   0.8711   0.02283   0.01478  -0.0863  0.3286  0.7655  -1.6646   0.0000   0.3409
   2.800   0.8879   0.02308   0.01505  -0.0853  0.3242  0.7693  -1.6959   0.0000   0.3377
   3.000   0.9156   0.02344   0.01538  -0.0866  0.3193  0.7745  -1.7378   0.0000   0.3359
   3.200   0.9251   0.02371   0.01563  -0.0843  0.3159  0.7770  -1.7624   0.0000   0.3321
   3.400   0.9326   0.02396   0.01588  -0.0815  0.3130  0.7793  -1.7851   0.0000   0.3281
   3.600   0.9440   0.02419   0.01616  -0.0795  0.3096  0.7820  -1.8114   0.0000   0.3246
   3.800   0.9586   0.02447   0.01646  -0.0781  0.3059  0.7853  -1.8420   0.0000   0.3217
   4.000   0.9798   0.02483   0.01681  -0.0782  0.3020  0.7895  -1.8800   0.0000   0.3197
   4.200   1.0001   0.02522   0.01715  -0.0781  0.2985  0.7930  -1.9174   0.0000   0.3178
   4.400   1.0068   0.02547   0.01744  -0.0752  0.2957  0.7950  -1.9406   0.0000   0.3141
   4.600   1.0157   0.02572   0.01775  -0.0728  0.2926  0.7974  -1.9660   0.0000   0.3108
   4.800   1.0274   0.02602   0.01807  -0.0710  0.2894  0.8002  -1.9959   0.0000   0.3080
   5.000   1.0429   0.02638   0.01844  -0.0701  0.2861  0.8034  -2.0303   0.0000   0.3057
   5.200   1.0652   0.02685   0.01886  -0.0705  0.2828  0.8071  -2.0722   0.0000   0.3044
   5.400   1.0809   0.02720   0.01925  -0.0696  0.2797  0.8099  -2.1074   0.0000   0.3023
   5.600   1.0876   0.02747   0.01958  -0.0669  0.2768  0.8119  -2.1335   0.0000   0.2992
   5.800   1.0964   0.02779   0.01994  -0.0646  0.2739  0.8142  -2.1621   0.0000   0.2964
   6.000   1.1077   0.02817   0.02034  -0.0630  0.2710  0.8170  -2.1944   0.0000   0.2940
   6.200   1.1226   0.02861   0.02077  -0.0621  0.2682  0.8200  -2.2321   0.0000   0.2921
   6.400   1.1439   0.02912   0.02128  -0.0624  0.2651  0.8232  -2.2772   0.0000   0.2910
   6.600   1.1592   0.02954   0.02177  -0.0615  0.2621  0.8257  -2.3152   0.0000   0.2893
   6.800   1.1647   0.02987   0.02217  -0.0589  0.2594  0.8277  -2.3416   0.0000   0.2864
   7.000   1.1725   0.03027   0.02260  -0.0567  0.2568  0.8299  -2.3708   0.0000   0.2839
   7.200   1.1828   0.03073   0.02307  -0.0550  0.2542  0.8324  -2.4032   0.0000   0.2818
   7.400   1.1962   0.03126   0.02358  -0.0541  0.2517  0.8350  -2.4401   0.0000   0.2802
   7.600   1.2136   0.03182   0.02423  -0.0538  0.2486  0.8378  -2.4868   0.0000   0.2790
   7.800   1.2322   0.03244   0.02491  -0.0539  0.2453  0.8403  -2.5354   0.0000   0.2780
   8.000   1.2363   0.03287   0.02539  -0.0512  0.2428  0.8421  -2.5645   0.0000   0.2754
   8.200   1.2424   0.03338   0.02593  -0.0490  0.2404  0.8440  -2.5965   0.0000   0.2731
   8.400   1.2506   0.03394   0.02650  -0.0473  0.2381  0.8462  -2.6315   0.0000   0.2712
   8.600   1.2613   0.03455   0.02715  -0.0461  0.2356  0.8485  -2.6697   0.0000   0.2696
   8.800   1.2745   0.03523   0.02792  -0.0454  0.2326  0.8508  -2.7110   0.0000   0.2683
   9.000   1.2896   0.03602   0.02877  -0.0452  0.2295  0.8530  -2.7555   0.0000   0.2673
   9.200   1.3009   0.03678   0.02958  -0.0443  0.2267  0.8549  -2.7973   0.0000   0.2660
   9.400   1.3043   0.03742   0.03024  -0.0420  0.2246  0.8567  -2.8300   0.0000   0.2638
   9.600   1.3099   0.03810   0.03092  -0.0402  0.2225  0.8586  -2.8663   0.0000   0.2619
   9.800   1.3175   0.03887   0.03181  -0.0388  0.2199  0.8605  -2.9056   0.0000   0.2603
  10.000   1.3266   0.03973   0.03276  -0.0378  0.2170  0.8625  -2.9486   0.0000   0.2590
  10.200   1.3366   0.04068   0.03378  -0.0372  0.2143  0.8644  -2.9934   0.0000   0.2579
  10.400   1.3478   0.04175   0.03487  -0.0368  0.2116  0.8662  -3.0402   0.0000   0.2570
  10.600   1.3579   0.04281   0.03594  -0.0364  0.2091  0.8679  -3.0857   0.0000   0.2561
  10.800   1.3598   0.04371   0.03693  -0.0344  0.2067  0.8694  -3.1212   0.0000   0.2542
  11.000   1.3634   0.04473   0.03805  -0.0330  0.2040  0.8710  -3.1597   0.0000   0.2527
  11.200   1.3681   0.04586   0.03926  -0.0319  0.2013  0.8725  -3.2004   0.0000   0.2514
  11.400   1.3732   0.04707   0.04053  -0.0310  0.1987  0.8741  -3.2420   0.0000   0.2503
  11.600   1.3794   0.04834   0.04181  -0.0304  0.1964  0.8757  -3.2857   0.0000   0.2493
  11.800   1.3866   0.04971   0.04325  -0.0301  0.1939  0.8773  -3.3309   0.0000   0.2485
  12.000   1.3942   0.05125   0.04492  -0.0301  0.1910  0.8788  -3.3792   0.0000   0.2479
  12.200   1.3991   0.05278   0.04653  -0.0297  0.1883  0.8800  -3.4250   0.0000   0.2471
  12.400   1.3993   0.05420   0.04801  -0.0286  0.1860  0.8812  -3.4611   0.0000   0.2459
  12.600   1.4004   0.05572   0.04955  -0.0278  0.1838  0.8824  -3.4990   0.0000   0.2448
  12.800   1.4018   0.05732   0.05122  -0.0272  0.1814  0.8837  -3.5371   0.0000   0.2439
  13.000   1.4027   0.05917   0.05320  -0.0268  0.1786  0.8851  -3.5726   0.0000   0.2432
  13.200   1.4038   0.06113   0.05526  -0.0268  0.1757  0.8865  -3.6099   0.0000   0.2426
  13.400   1.4053   0.06319   0.05737  -0.0269  0.1731  0.8877  -3.6495   0.0000   0.2422
  13.600   1.4077   0.06525   0.05945  -0.0272  0.1707  0.8888  -3.6925   0.0000   0.2419
  13.800   1.4093   0.06757   0.06188  -0.0278  0.1681  0.8898  -3.7316   0.0000   0.2417
  14.000   1.4097   0.07011   0.06455  -0.0285  0.1652  0.8905  -3.7667   0.0000   0.2417
  14.200   1.4057   0.07239   0.06692  -0.0284  0.1627  0.8914  -3.7916   0.0000   0.2412
  14.400   1.4022   0.07468   0.06926  -0.0284  0.1604  0.8924  -3.8180   0.0000   0.2408
  14.600   1.4001   0.07689   0.07148  -0.0286  0.1583  0.8935  -3.8495   0.0000   0.2404
  14.800   1.3950   0.07971   0.07444  -0.0292  0.1557  0.8945  -3.8694   0.0000   0.2404
  15.000   1.3894   0.08272   0.07757  -0.0301  0.1529  0.8954  -3.8872   0.0000   0.2406
  15.200   1.3850   0.08568   0.08061  -0.0312  0.1502  0.8963  -3.9078   0.0000   0.2408
  15.400   1.3826   0.08844   0.08340  -0.0322  0.1478  0.8971  -3.9348   0.0000   0.2411
  15.600   1.3792   0.09144   0.08646  -0.0336  0.1453  0.8978  -3.9575   0.0000   0.2415
  15.800   1.3714   0.09514   0.09031  -0.0354  0.1424  0.8984  -3.9645   0.0000   0.2424
  16.000   1.3653   0.09866   0.09392  -0.0372  0.1396  0.8989  -3.9765   0.0000   0.2432
  16.200   1.3628   0.10171   0.09701  -0.0389  0.1371  0.8995  -4.0007   0.0000   0.2439
  16.400   1.3612   0.10473   0.10006  -0.0407  0.1347  0.9002  -4.0281   0.0000   0.2447
  16.600   1.3495   0.10879   0.10427  -0.0428  0.1320  0.9007  -4.0184   0.0000   0.2459
  16.800   1.3396   0.11240   0.10798  -0.0446  0.1293  0.9014  -4.0155   0.0000   0.2469
  17.000   1.3348   0.11529   0.11090  -0.0461  0.1269  0.9023  -4.0313   0.0000   0.2475
  17.200   1.3352   0.11745   0.11304  -0.0471  0.1247  0.9032  -4.0670   0.0000   0.2478
  17.400   1.3205   0.12215   0.11790  -0.0501  0.1219  0.9037  -4.0383   0.0000   0.2498
  17.600   1.3106   0.12617   0.12202  -0.0528  0.1191  0.9043  -4.0287   0.0000   0.2515
  17.800   1.3097   0.12886   0.12472  -0.0546  0.1166  0.9051  -4.0561   0.0000   0.2523
  18.000   1.3109   0.13129   0.12715  -0.0563  0.1143  0.9058  -4.0914   0.0000   0.2530
  18.200   1.2950   0.13647   0.13249  -0.0601  0.1112  0.9061  -4.0487   0.0000   0.2558
  18.400   1.2894   0.14009   0.13618  -0.0629  0.1084  0.9066  -4.0505   0.0000   0.2575
  18.600   1.2956   0.14188   0.13794  -0.0644  0.1062  0.9073  -4.1054   0.0000   0.2578
  18.800   1.2874   0.14600   0.14215  -0.0677  0.1035  0.9077  -4.0916   0.0000   0.2601
  19.000   1.2761   0.15068   0.14694  -0.0715  0.1004  0.9081  -4.0601   0.0000   0.2629
  19.200   1.2799   0.15300   0.14927  -0.0736  0.0981  0.9089  -4.1004   0.0000   0.2638
  19.400   1.2883   0.15418   0.15040  -0.0746  0.0962  0.9098  -4.1664   0.0000   0.2635
  19.600   1.2674   0.16020   0.15659  -0.0794  0.0930  0.9101  -4.0832   0.0000   0.2677
  19.800   1.2634   0.16321   0.15965  -0.0818  0.0906  0.9108  -4.0858   0.0000   0.2692
  20.000   1.2723   0.16401   0.16041  -0.0824  0.0889  0.9118  -4.1593   0.0000   0.2685
  20.200   1.2648   0.16787   0.16434  -0.0857  0.0864  0.9124  -4.1401   0.0000   0.2709
  20.400   1.2527   0.17270   0.16927  -0.0899  0.0835  0.9128  -4.0911   0.0000   0.2743
  20.600   1.2592   0.17422   0.17078  -0.0914  0.0816  0.9135  -4.1472   0.0000   0.2745
  20.800   1.2749   0.17416   0.17066  -0.0915  0.0803  0.9143  -4.2561   0.0000   0.2730
  21.000   1.2481   0.18177   0.17847  -0.0983  0.0767  0.9143  -4.1118   0.0000   0.2794
  21.200   1.2516   0.18398   0.18069  -0.1005  0.0747  0.9149  -4.1460   0.0000   0.2803
  21.400   1.2657   0.18428   0.18095  -0.1012  0.0734  0.9157  -4.2464   0.0000   0.2792
  21.600   1.2485   0.19029   0.18708  -0.1067  0.0705  0.9159  -4.1490   0.0000   0.2841
  21.800   1.2471   0.19352   0.19035  -0.1099  0.0683  0.9165  -4.1494   0.0000   0.2861
  22.000   1.2596   0.19418   0.19100  -0.1110  0.0671  0.9174  -4.2422   0.0000   0.2854
  22.400   1.2420   0.20310   0.20006  -0.1195  0.0622  0.9183  -4.1360   0.0000   0.2922
  22.600   1.2500   0.20381   0.20076  -0.1202  0.0611  0.9191  -4.2088   0.0000   0.2915
  22.800   1.2630   0.20369   0.20061  -0.1204  0.0603  0.9200  -4.3208   0.0000   0.2899
  23.000   1.2293   0.21345   0.21054  -0.1294  0.0560  0.9199  -4.0628   0.0000   0.2994
  23.200   1.2398   0.21395   0.21104  -0.1303  0.0552  0.9206  -4.1550   0.0000   0.2984
  23.400   1.2535   0.21386   0.21093  -0.1306  0.0546  0.9213  -4.2735   0.0000   0.2968
  23.800   1.1978   0.23221   0.22948  -0.1474  0.0460  0.9210  -3.7522   0.0000   0.3149
  24.000   1.2044   0.23362   0.23091  -0.1493  0.0451  0.9216  -3.8054   0.0000   0.3150
  24.200   1.2145   0.23420   0.23151  -0.1505  0.0447  0.9222  -3.8961   0.0000   0.3142
  24.400   1.2263   0.23444   0.23174  -0.1514  0.0443  0.9229  -4.0035   0.0000   0.3129
  24.600   1.2392   0.23445   0.23175  -0.1521  0.0441  0.9235  -4.1217   0.0000   0.3114
  24.800   1.2531   0.23428   0.23158  -0.1527  0.0438  0.9243  -4.2493   0.0000   0.3096


