xflr5 v6.47

 Calculated polar for: NACA24018_theta30_Ku4.5_Kl0.5_d0.14_delta3.44

 1 1 Reynolds number fixed          Mach number fixed         

 xtrf =   1.000 (top)        1.000 (bottom)
 Mach =   0.000     Re =     1.800 e 6     Ncrit =   5.000

  alpha     CL        CD       CDp       Cm    Top Xtr Bot Xtr   Cpmin    Chinge    XCp    
 ------- -------- --------- --------- -------- ------- ------- -------- --------- ---------
 -14.800  -0.9869   0.02634   0.02157  -0.0885  0.9372  0.0266  -6.5156   0.0000   0.1373
 -14.600  -0.9746   0.02575   0.02096  -0.0878  0.9359  0.0269  -6.3987   0.0000   0.1373
 -14.400  -0.9612   0.02515   0.02034  -0.0873  0.9350  0.0273  -6.2792   0.0000   0.1369
 -14.200  -0.9469   0.02462   0.01980  -0.0868  0.9343  0.0277  -6.1568   0.0000   0.1363
 -14.000  -0.9493   0.02378   0.01894  -0.0834  0.9297  0.0279  -6.0938   0.0000   0.1407
 -13.800  -0.9316   0.02325   0.01840  -0.0834  0.9287  0.0283  -5.9621   0.0000   0.1393
 -13.600  -0.9112   0.02277   0.01791  -0.0837  0.9280  0.0287  -5.8248   0.0000   0.1371
 -13.400  -0.8891   0.02233   0.01746  -0.0843  0.9275  0.0292  -5.6831   0.0000   0.1343
 -13.200  -0.8649   0.02192   0.01704  -0.0852  0.9271  0.0296  -5.5354   0.0000   0.1307
 -13.000  -0.8386   0.02154   0.01665  -0.0865  0.9268  0.0299  -5.3826   0.0000   0.1262
 -12.800  -0.8350   0.02104   0.01614  -0.0837  0.9229  0.0301  -5.3044   0.0000   0.1295
 -12.600  -0.8129   0.02063   0.01573  -0.0841  0.9218  0.0306  -5.1677   0.0000   0.1263
 -12.400  -0.7892   0.02025   0.01535  -0.0849  0.9211  0.0312  -5.0270   0.0000   0.1224
 -12.200  -0.7642   0.01989   0.01499  -0.0858  0.9206  0.0318  -4.8887   0.0000   0.1177
 -12.000  -0.7382   0.01955   0.01466  -0.0869  0.9201  0.0323  -4.7491   0.0000   0.1123
 -11.800  -0.7112   0.01922   0.01433  -0.0881  0.9197  0.0329  -4.6078   0.0000   0.1061
 -11.600  -0.6831   0.01890   0.01401  -0.0895  0.9194  0.0335  -4.4649   0.0000   0.0989
 -11.400  -0.6545   0.01859   0.01370  -0.0909  0.9191  0.0341  -4.3225   0.0000   0.0908
 -11.200  -0.6262   0.01824   0.01337  -0.0923  0.9187  0.0350  -4.1825   0.0000   0.0821
 -10.400  -0.5555   0.01732   0.01247  -0.0900  0.9058  0.0375  -3.7536   0.0000   0.0677
 -10.200  -0.5574   0.01759   0.01274  -0.0860  0.8825  0.0377  -3.7016   0.0000   0.0760
 -10.000  -0.5263   0.01725   0.01241  -0.0877  0.8768  0.0389  -3.5616   0.0000   0.0632
  -9.800  -0.4903   0.01678   0.01195  -0.0903  0.8722  0.0402  -3.4105   0.0000   0.0451
  -9.600  -0.4500   0.01621   0.01137  -0.0937  0.8649  0.0414  -3.2511   0.0000   0.0204
  -9.400  -0.3982   0.01532   0.01045  -0.0992  0.8547  0.0428  -3.0689   0.0000  -0.0220
  -9.200  -0.3403   0.01428   0.00932  -0.1059  0.8342  0.0448  -2.8814   0.0000  -0.0866
  -9.000  -0.3058   0.01384   0.00874  -0.1083  0.8018  0.0461  -2.7515   0.0000  -0.1313
  -8.800  -0.2847   0.01376   0.00856  -0.1082  0.7730  0.0473  -2.6538   0.0000  -0.1581
  -8.600  -0.2642   0.01373   0.00844  -0.1080  0.7466  0.0488  -2.5613   0.0000  -0.1878
  -8.400  -0.2430   0.01370   0.00833  -0.1079  0.7212  0.0502  -2.4696   0.0000  -0.2247
  -8.200  -0.2213   0.01369   0.00822  -0.1079  0.6970  0.0514  -2.3783   0.0000  -0.2698
  -8.000  -0.1977   0.01365   0.00812  -0.1083  0.6756  0.0530  -2.2840   0.0000  -0.3326
  -7.800  -0.1733   0.01361   0.00802  -0.1088  0.6566  0.0549  -2.1893   0.0000  -0.4160
  -7.600  -0.1489   0.01358   0.00793  -0.1093  0.6366  0.0567  -2.0959   0.0000  -0.5266
  -7.400  -0.1236   0.01354   0.00784  -0.1100  0.6161  0.0589  -2.0022   0.0000  -0.6889
  -7.200  -0.0980   0.01351   0.00774  -0.1107  0.5969  0.0611  -1.9102   0.0000  -0.9384
  -7.000  -0.0724   0.01349   0.00766  -0.1114  0.5797  0.0631  -1.8226   0.0000  -1.3658
  -6.800  -0.0457   0.01345   0.00758  -0.1124  0.5618  0.0662  -1.7343   0.0000  -2.3269
  -6.600  -0.0194   0.01343   0.00750  -0.1132  0.5438  0.0688  -1.6480   0.0000  -5.8546
  -6.400   0.0075   0.01340   0.00743  -0.1142  0.5278  0.0719  -1.5621   0.0000  16.1775
  -6.200   0.0339   0.01339   0.00739  -0.1150  0.5137  0.0751  -1.4799   0.0000   3.7782
  -6.000   0.0604   0.01339   0.00735  -0.1159  0.5000  0.0785  -1.4011   0.0000   2.2408
  -5.800   0.0870   0.01340   0.00732  -0.1168  0.4863  0.0829  -1.3231   0.0000   1.6385
  -5.600   0.1141   0.01340   0.00730  -0.1178  0.4719  0.0883  -1.2485   0.0000   1.3160
  -5.400   0.1404   0.01342   0.00727  -0.1186  0.4561  0.0932  -1.1770   0.0000   1.1201
  -5.200   0.1674   0.01344   0.00726  -0.1196  0.4400  0.0991  -1.1056   0.0000   0.9842
  -5.000   0.1942   0.01347   0.00725  -0.1205  0.4255  0.1050  -1.0357   0.0000   0.8865
  -4.600   0.2488   0.01353   0.00728  -0.1225  0.4025  0.1220  -0.8977   0.0000   0.7531
  -4.400   0.2768   0.01356   0.00731  -0.1237  0.3930  0.1331  -0.8352   0.0000   0.7056
  -4.200   0.3053   0.01359   0.00736  -0.1250  0.3829  0.1473  -0.8286   0.0000   0.6665
  -4.000   0.3353   0.01363   0.00742  -0.1265  0.3745  0.1671  -0.8572   0.0000   0.6332
  -3.800   0.3659   0.01367   0.00750  -0.1283  0.3646  0.1912  -0.8864   0.0000   0.6052
  -3.600   0.3991   0.01371   0.00761  -0.1305  0.3561  0.2250  -0.9175   0.0000   0.5807
  -3.400   0.4454   0.01376   0.00785  -0.1356  0.3451  0.3070  -0.9601   0.0000   0.5570
  -3.200   0.4855   0.01385   0.00806  -0.1392  0.3360  0.3626  -0.9995   0.0000   0.5387
  -3.000   0.5174   0.01395   0.00819  -0.1412  0.3283  0.3901  -1.0333   0.0000   0.5241
  -2.800   0.5500   0.01405   0.00834  -0.1432  0.3224  0.4158  -1.0679   0.0000   0.5111
  -2.600   0.5838   0.01417   0.00850  -0.1455  0.3164  0.4463  -1.1036   0.0000   0.4994
  -2.400   0.6152   0.01429   0.00866  -0.1473  0.3119  0.4674  -1.1379   0.0000   0.4891
  -2.200   0.6448   0.01441   0.00880  -0.1487  0.3079  0.4836  -1.1711   0.0000   0.4798
  -2.000   0.6756   0.01455   0.00895  -0.1503  0.3027  0.5023  -1.2053   0.0000   0.4714
  -1.800   0.7053   0.01470   0.00910  -0.1518  0.2973  0.5185  -1.2394   0.0000   0.4636
  -1.600   0.7364   0.01485   0.00929  -0.1534  0.2934  0.5369  -1.2758   0.0000   0.4564
  -1.400   0.7653   0.01500   0.00944  -0.1547  0.2889  0.5508  -1.3116   0.0000   0.4499
  -1.200   0.7918   0.01515   0.00957  -0.1554  0.2840  0.5585  -1.3463   0.0000   0.4437
  -1.000   0.8162   0.01528   0.00968  -0.1558  0.2804  0.5639  -1.3796   0.0000   0.4379
  -0.800   0.8429   0.01542   0.00983  -0.1566  0.2772  0.5699  -1.4150   0.0000   0.4325
  -0.600   0.8683   0.01556   0.00996  -0.1571  0.2740  0.5758  -1.4495   0.0000   0.4274
  -0.400   0.8925   0.01570   0.01008  -0.1574  0.2704  0.5811  -1.4832   0.0000   0.4225
  -0.200   0.9186   0.01586   0.01023  -0.1581  0.2663  0.5870  -1.5195   0.0000   0.4179
   0.000   0.9441   0.01601   0.01038  -0.1586  0.2639  0.5930  -1.5563   0.0000   0.4136
   0.200   0.9680   0.01615   0.01051  -0.1588  0.2607  0.5979  -1.5919   0.0000   0.4094
   0.400   0.9930   0.01631   0.01066  -0.1593  0.2573  0.6027  -1.6286   0.0000   0.4054
   0.600   1.0181   0.01648   0.01082  -0.1598  0.2537  0.6082  -1.6657   0.0000   0.4016
   0.800   1.0422   0.01665   0.01098  -0.1600  0.2506  0.6134  -1.7019   0.0000   0.3980
   1.000   1.0661   0.01680   0.01113  -0.1602  0.2480  0.6182  -1.7392   0.0000   0.3945
   1.200   1.0919   0.01699   0.01132  -0.1609  0.2446  0.6243  -1.7798   0.0000   0.3912
   1.400   1.1161   0.01718   0.01150  -0.1611  0.2410  0.6304  -1.8202   0.0000   0.3880
   1.600   1.1393   0.01737   0.01166  -0.1612  0.2369  0.6355  -1.8598   0.0000   0.3849
   1.800   1.1648   0.01756   0.01187  -0.1618  0.2348  0.6413  -1.9021   0.0000   0.3820
   2.000   1.1887   0.01775   0.01206  -0.1620  0.2325  0.6466  -1.9429   0.0000   0.3791
   2.200   1.2112   0.01793   0.01224  -0.1620  0.2298  0.6510  -1.9827   0.0000   0.3763
   2.400   1.2344   0.01814   0.01244  -0.1621  0.2265  0.6551  -2.0237   0.0000   0.3736
   2.600   1.2581   0.01837   0.01266  -0.1623  0.2226  0.6601  -2.0668   0.0000   0.3710
   2.800   1.2812   0.01857   0.01287  -0.1624  0.2207  0.6654  -2.1096   0.0000   0.3684
   3.000   1.3033   0.01877   0.01307  -0.1623  0.2184  0.6700  -2.1515   0.0000   0.3659
   3.200   1.3273   0.01901   0.01332  -0.1625  0.2153  0.6754  -2.1959   0.0000   0.3636
   3.400   1.3497   0.01927   0.01356  -0.1625  0.2117  0.6804  -2.2405   0.0000   0.3612
   3.600   1.3712   0.01951   0.01379  -0.1623  0.2084  0.6849  -2.2842   0.0000   0.3589
   3.800   1.3928   0.01973   0.01402  -0.1621  0.2064  0.6888  -2.3290   0.0000   0.3566
   4.000   1.4154   0.01998   0.01428  -0.1621  0.2037  0.6933  -2.3774   0.0000   0.3545
   4.200   1.4369   0.02024   0.01454  -0.1619  0.2006  0.6977  -2.4259   0.0000   0.3523
   4.400   1.4574   0.02052   0.01480  -0.1615  0.1973  0.7015  -2.4734   0.0000   0.3502
   4.600   1.4778   0.02077   0.01505  -0.1611  0.1947  0.7047  -2.5209   0.0000   0.3481
   4.800   1.4991   0.02102   0.01532  -0.1609  0.1927  0.7083  -2.5700   0.0000   0.3461
   5.000   1.5202   0.02129   0.01560  -0.1606  0.1903  0.7125  -2.6192   0.0000   0.3441
   5.200   1.5405   0.02158   0.01589  -0.1602  0.1871  0.7168  -2.6675   0.0000   0.3422
   5.400   1.5598   0.02191   0.01619  -0.1596  0.1832  0.7206  -2.7159   0.0000   0.3402
   5.600   1.5796   0.02219   0.01648  -0.1591  0.1805  0.7237  -2.7703   0.0000   0.3383
   5.800   1.5993   0.02249   0.01679  -0.1586  0.1774  0.7273  -2.8250   0.0000   0.3364
   6.000   1.6183   0.02282   0.01712  -0.1580  0.1742  0.7309  -2.8789   0.0000   0.3345
   6.200   1.6369   0.02317   0.01746  -0.1573  0.1711  0.7344  -2.9325   0.0000   0.3327
   6.400   1.6557   0.02348   0.01779  -0.1566  0.1691  0.7376  -2.9868   0.0000   0.3309
   6.600   1.6742   0.02381   0.01813  -0.1559  0.1672  0.7403  -3.0410   0.0000   0.3291
   6.800   1.6916   0.02419   0.01851  -0.1550  0.1640  0.7432  -3.0938   0.0000   0.3273
   7.000   1.7076   0.02463   0.01894  -0.1539  0.1598  0.7462  -3.1480   0.0000   0.3254
   7.200   1.7244   0.02502   0.01934  -0.1530  0.1566  0.7491  -3.2092   0.0000   0.3236
   7.400   1.7414   0.02541   0.01973  -0.1520  0.1537  0.7519  -3.2713   0.0000   0.3219
   7.600   1.7580   0.02584   0.02016  -0.1511  0.1506  0.7547  -3.3329   0.0000   0.3202
   7.800   1.7737   0.02633   0.02063  -0.1500  0.1467  0.7570  -3.3934   0.0000   0.3184
   8.000   1.7902   0.02673   0.02104  -0.1490  0.1442  0.7593  -3.4598   0.0000   0.3168
   8.200   1.8051   0.02718   0.02151  -0.1477  0.1410  0.7619  -3.5266   0.0000   0.3150
   8.400   1.8179   0.02776   0.02207  -0.1462  0.1370  0.7644  -3.5900   0.0000   0.3132
   8.600   1.8320   0.02828   0.02260  -0.1448  0.1341  0.7669  -3.6561   0.0000   0.3115
   8.800   1.8466   0.02879   0.02313  -0.1436  0.1312  0.7693  -3.7236   0.0000   0.3099
   9.000   1.8607   0.02936   0.02370  -0.1423  0.1282  0.7716  -3.7976   0.0000   0.3082
   9.200   1.8740   0.03000   0.02433  -0.1409  0.1247  0.7736  -3.8710   0.0000   0.3066
   9.400   1.8881   0.03060   0.02494  -0.1397  0.1216  0.7753  -3.9464   0.0000   0.3050
   9.600   1.8978   0.03131   0.02565  -0.1378  0.1177  0.7773  -4.0130   0.0000   0.3032
   9.800   1.9078   0.03203   0.02637  -0.1359  0.1144  0.7794  -4.0851   0.0000   0.3015
  10.000   1.9197   0.03264   0.02701  -0.1344  0.1119  0.7815  -4.1620   0.0000   0.2998
  10.200   1.9302   0.03338   0.02775  -0.1327  0.1090  0.7834  -4.2364   0.0000   0.2982
  10.400   1.9385   0.03429   0.02866  -0.1307  0.1055  0.7853  -4.3061   0.0000   0.2965
  10.600   1.9496   0.03505   0.02945  -0.1292  0.1028  0.7871  -4.3847   0.0000   0.2949
  10.800   1.9589   0.03598   0.03038  -0.1275  0.0993  0.7889  -4.4601   0.0000   0.2933
  11.000   1.9669   0.03704   0.03144  -0.1257  0.0961  0.7905  -4.5326   0.0000   0.2917
  11.200   1.9775   0.03795   0.03237  -0.1243  0.0937  0.7919  -4.6122   0.0000   0.2902
  11.400   1.9839   0.03900   0.03344  -0.1223  0.0909  0.7934  -4.6816   0.0000   0.2886
  11.600   1.9881   0.04016   0.03461  -0.1201  0.0881  0.7950  -4.7487   0.0000   0.2869
  11.800   1.9944   0.04120   0.03568  -0.1182  0.0859  0.7966  -4.8229   0.0000   0.2854
  12.000   1.9989   0.04243   0.03694  -0.1163  0.0833  0.7981  -4.8948   0.0000   0.2838
  12.200   2.0017   0.04388   0.03841  -0.1142  0.0805  0.7996  -4.9620   0.0000   0.2823
  12.400   2.0073   0.04515   0.03971  -0.1126  0.0785  0.8011  -5.0377   0.0000   0.2808
  12.600   2.0110   0.04665   0.04124  -0.1109  0.0758  0.8026  -5.1084   0.0000   0.2794
  12.800   2.0122   0.04846   0.04307  -0.1091  0.0730  0.8040  -5.1716   0.0000   0.2781
  13.000   2.0163   0.05010   0.04473  -0.1078  0.0709  0.8053  -5.2435   0.0000   0.2768
  13.200   2.0186   0.05195   0.04661  -0.1064  0.0685  0.8065  -5.3101   0.0000   0.2755
  13.400   2.0189   0.05405   0.04874  -0.1050  0.0663  0.8075  -5.3708   0.0000   0.2744
  13.600   2.0221   0.05591   0.05064  -0.1039  0.0647  0.8084  -5.4402   0.0000   0.2733
  13.800   2.0221   0.05795   0.05273  -0.1027  0.0629  0.8094  -5.4998   0.0000   0.2721
  14.000   2.0188   0.06022   0.05505  -0.1013  0.0611  0.8105  -5.5487   0.0000   0.2710
  14.200   2.0152   0.06259   0.05746  -0.1000  0.0596  0.8115  -5.5964   0.0000   0.2699
  14.400   2.0129   0.06486   0.05979  -0.0990  0.0581  0.8126  -5.6496   0.0000   0.2690
  14.600   2.0087   0.06742   0.06240  -0.0981  0.0564  0.8136  -5.6968   0.0000   0.2681
  14.800   2.0024   0.07032   0.06535  -0.0973  0.0548  0.8144  -5.7363   0.0000   0.2673
  15.000   1.9969   0.07320   0.06830  -0.0968  0.0535  0.8153  -5.7778   0.0000   0.2666
  15.200   1.9919   0.07609   0.07125  -0.0964  0.0523  0.8161  -5.8207   0.0000   0.2660
  15.400   1.9855   0.07924   0.07447  -0.0963  0.0511  0.8169  -5.8578   0.0000   0.2655
  15.600   1.9770   0.08274   0.07803  -0.0964  0.0499  0.8176  -5.8871   0.0000   0.2652
  15.800   1.9676   0.08644   0.08179  -0.0967  0.0488  0.8184  -5.9116   0.0000   0.2649
  16.000   1.9610   0.08982   0.08525  -0.0971  0.0479  0.8192  -5.9454   0.0000   0.2647
  16.200   1.9532   0.09342   0.08892  -0.0977  0.0470  0.8199  -5.9737   0.0000   0.2646
  16.400   1.9439   0.09723   0.09281  -0.0986  0.0460  0.8206  -5.9954   0.0000   0.2647
  16.600   1.9330   0.10131   0.09696  -0.0997  0.0450  0.8212  -6.0098   0.0000   0.2649
  16.800   1.9212   0.10557   0.10129  -0.1011  0.0441  0.8218  -6.0190   0.0000   0.2653
  17.000   1.9116   0.10958   0.10537  -0.1025  0.0433  0.8224  -6.0366   0.0000   0.2657
  17.200   1.9023   0.11357   0.10943  -0.1040  0.0425  0.8230  -6.0573   0.0000   0.2661
  17.400   1.8920   0.11772   0.11366  -0.1058  0.0416  0.8235  -6.0723   0.0000   0.2667
  17.600   1.8807   0.12205   0.11805  -0.1079  0.0408  0.8240  -6.0811   0.0000   0.2674
  17.800   1.8686   0.12652   0.12260  -0.1102  0.0399  0.8244  -6.0842   0.0000   0.2684
  18.000   1.8572   0.13078   0.12693  -0.1124  0.0392  0.8250  -6.0891   0.0000   0.2692
  18.200   1.8466   0.13461   0.13084  -0.1143  0.0386  0.8257  -6.0972   0.0000   0.2699
  18.400   1.8357   0.13851   0.13481  -0.1163  0.0380  0.8263  -6.1022   0.0000   0.2708
  18.600   1.8251   0.14238   0.13875  -0.1185  0.0373  0.8269  -6.1069   0.0000   0.2716
  18.800   1.8155   0.14610   0.14252  -0.1206  0.0365  0.8275  -6.1149   0.0000   0.2725
  19.000   1.8045   0.15008   0.14656  -0.1231  0.0358  0.8281  -6.1144   0.0000   0.2736
  19.200   1.7934   0.15412   0.15067  -0.1257  0.0351  0.8286  -6.1108   0.0000   0.2748
  19.400   1.7875   0.15729   0.15390  -0.1277  0.0345  0.8292  -6.1331   0.0000   0.2755
  19.600   1.7789   0.16096   0.15762  -0.1303  0.0339  0.8298  -6.1399   0.0000   0.2765
  19.800   1.7719   0.16438   0.16110  -0.1327  0.0332  0.8304  -6.1533   0.0000   0.2775
  20.000   1.7644   0.16794   0.16470  -0.1353  0.0325  0.8310  -6.1626   0.0000   0.2786
  20.200   1.7565   0.17161   0.16843  -0.1381  0.0318  0.8317  -6.1676   0.0000   0.2798
  20.400   1.7512   0.17486   0.17172  -0.1406  0.0311  0.8325  -6.1862   0.0000   0.2808
  20.600   1.7479   0.17782   0.17472  -0.1429  0.0305  0.8333  -6.2143   0.0000   0.2816
  20.800   1.7426   0.18115   0.17810  -0.1457  0.0299  0.8340  -6.2295   0.0000   0.2827
  21.000   1.7399   0.18406   0.18104  -0.1481  0.0292  0.8348  -6.2591   0.0000   0.2835
  21.200   1.7331   0.18772   0.18475  -0.1513  0.0285  0.8355  -6.2628   0.0000   0.2849
  21.400   1.7299   0.19077   0.18783  -0.1540  0.0278  0.8362  -6.2869   0.0000   0.2859
  21.600   1.7269   0.19384   0.19095  -0.1567  0.0273  0.8368  -6.3103   0.0000   0.2869
  21.800   1.7251   0.19671   0.19385  -0.1594  0.0267  0.8375  -6.3404   0.0000   0.2878
  22.000   1.7240   0.19947   0.19665  -0.1620  0.0260  0.8381  -6.3741   0.0000   0.2886
  22.200   1.7194   0.20291   0.20012  -0.1653  0.0254  0.8387  -6.3834   0.0000   0.2900
  22.400   1.7176   0.20584   0.20309  -0.1681  0.0247  0.8393  -6.4102   0.0000   0.2911
  22.600   1.7180   0.20840   0.20568  -0.1707  0.0243  0.8398  -6.4505   0.0000   0.2918
  22.800   1.7138   0.21137   0.20869  -0.1735  0.0238  0.8405  -6.4627   0.0000   0.2929
  23.000   1.7117   0.21369   0.21105  -0.1756  0.0234  0.8411  -6.4915   0.0000   0.2935
  23.200   1.7097   0.21598   0.21337  -0.1776  0.0229  0.8417  -6.5205   0.0000   0.2941
  23.400   1.7040   0.21902   0.21645  -0.1805  0.0224  0.8423  -6.5218   0.0000   0.2954
  23.600   1.7015   0.22145   0.21891  -0.1829  0.0220  0.8428  -6.5469   0.0000   0.2961
  23.800   1.7001   0.22371   0.22119  -0.1851  0.0216  0.8433  -6.5789   0.0000   0.2967
  24.000   1.6965   0.22643   0.22396  -0.1878  0.0212  0.8438  -6.5929   0.0000   0.2978
  24.200   1.6957   0.22865   0.22622  -0.1900  0.0208  0.8443  -6.6269   0.0000   0.2984
  24.400   1.6953   0.23080   0.22840  -0.1922  0.0204  0.8448  -6.6635   0.0000   0.2989
  24.600   1.6921   0.23351   0.23114  -0.1950  0.0200  0.8454  -6.6772   0.0000   0.3000
  24.800   1.6896   0.23607   0.23374  -0.1977  0.0196  0.8460  -6.6954   0.0000   0.3010
  25.000   1.6884   0.23837   0.23606  -0.2002  0.0192  0.8466  -6.7237   0.0000   0.3017


