xflr5 v6.47

 Calculated polar for: NACA24018_theta30_Ku4.5_Kl0.5_d0.35_delta13.38

 1 1 Reynolds number fixed          Mach number fixed         

 xtrf =   1.000 (top)        1.000 (bottom)
 Mach =   0.000     Re =     1.200 e 6     Ncrit =   5.000

  alpha     CL        CD       CDp       Cm    Top Xtr Bot Xtr   Cpmin    Chinge    XCp    
 ------- -------- --------- --------- -------- ------- ------- -------- --------- ---------
  -9.600   0.6758   0.08357   0.08047  -0.1889  0.6877  0.1444  -0.8923   0.0000   0.5300
  -9.400   0.7434   0.08250   0.07940  -0.1946  0.6791  0.1649  -0.9549   0.0000   0.5117
  -9.000   0.9085   0.08040   0.07673  -0.2108  0.5785  0.2407  -1.2131   0.0000   0.4809
  -8.800   0.9318   0.08310   0.07924  -0.2116  0.5293  0.2672  -1.1984   0.0000   0.4754
  -8.600   0.9719   0.08620   0.08221  -0.2149  0.4898  0.3092  -1.2036   0.0000   0.4688
  -8.400   1.0112   0.08869   0.08463  -0.2179  0.4620  0.3440  -1.2208   0.0000   0.4626
  -8.200   1.0428   0.09043   0.08628  -0.2195  0.4412  0.3646  -1.2568   0.0000   0.4572
  -8.000   1.0700   0.09177   0.08754  -0.2205  0.4224  0.3802  -1.2908   0.0000   0.4523
  -7.800   1.0942   0.09283   0.08851  -0.2209  0.4049  0.3927  -1.3238   0.0000   0.4478
  -7.600   1.1182   0.09381   0.08942  -0.2213  0.3896  0.4019  -1.3569   0.0000   0.4434
  -7.400   1.1415   0.09470   0.09026  -0.2216  0.3777  0.4112  -1.3896   0.0000   0.4393
  -7.000   1.1876   0.09643   0.09187  -0.2221  0.3555  0.4268  -1.4550   0.0000   0.4314
  -6.800   1.2085   0.09714   0.09252  -0.2220  0.3460  0.4328  -1.4861   0.0000   0.4277
  -6.600   1.2301   0.09787   0.09321  -0.2220  0.3397  0.4386  -1.5179   0.0000   0.4241
  -6.400   1.2507   0.09853   0.09386  -0.2218  0.3331  0.4454  -1.5500   0.0000   0.4207
  -6.200   1.2710   0.09919   0.09447  -0.2216  0.3256  0.4514  -1.5824   0.0000   0.4174
  -6.000   1.2924   0.09990   0.09515  -0.2216  0.3200  0.4565  -1.6166   0.0000   0.4141
  -5.800   1.3122   0.10051   0.09573  -0.2213  0.3141  0.4600  -1.6503   0.0000   0.4110
  -5.600   1.3297   0.10095   0.09614  -0.2206  0.3082  0.4638  -1.6817   0.0000   0.4080
  -5.400   1.3476   0.10141   0.09658  -0.2201  0.3032  0.4675  -1.7136   0.0000   0.4050
  -5.200   1.3661   0.10192   0.09708  -0.2196  0.2991  0.4710  -1.7464   0.0000   0.4021
  -5.000   1.3850   0.10246   0.09759  -0.2192  0.2942  0.4740  -1.7797   0.0000   0.3993
  -4.800   1.4038   0.10301   0.09811  -0.2187  0.2894  0.4766  -1.8130   0.0000   0.3966
  -4.600   1.4232   0.10361   0.09867  -0.2184  0.2851  0.4791  -1.8476   0.0000   0.3939
  -4.400   1.4404   0.10403   0.09908  -0.2177  0.2824  0.4817  -1.8824   0.0000   0.3913
  -4.200   1.4563   0.10435   0.09941  -0.2168  0.2791  0.4844  -1.9159   0.0000   0.3887
  -4.000   1.4724   0.10469   0.09974  -0.2160  0.2750  0.4868  -1.9497   0.0000   0.3862
  -3.800   1.4886   0.10506   0.10008  -0.2152  0.2703  0.4894  -1.9839   0.0000   0.3837
  -3.600   1.5055   0.10548   0.10047  -0.2145  0.2663  0.4924  -2.0190   0.0000   0.3813
  -3.400   1.5231   0.10593   0.10093  -0.2138  0.2634  0.4953  -2.0550   0.0000   0.3790
  -3.200   1.5409   0.10642   0.10141  -0.2133  0.2601  0.4978  -2.0916   0.0000   0.3766
  -3.000   1.5590   0.10694   0.10190  -0.2127  0.2567  0.4999  -2.1286   0.0000   0.3744
  -2.800   1.5770   0.10747   0.10240  -0.2122  0.2531  0.5017  -2.1657   0.0000   0.3721
  -2.400   1.6059   0.10792   0.10286  -0.2100  0.2477  0.5063  -2.2342   0.0000   0.3678
  -2.200   1.6209   0.10818   0.10313  -0.2090  0.2449  0.5088  -2.2710   0.0000   0.3656
  -2.000   1.6362   0.10849   0.10344  -0.2081  0.2413  0.5114  -2.3084   0.0000   0.3635
  -1.800   1.6518   0.10887   0.10379  -0.2073  0.2373  0.5141  -2.3465   0.0000   0.3615
  -1.600   1.6680   0.10929   0.10418  -0.2065  0.2332  0.5166  -2.3854   0.0000   0.3594
  -1.400   1.6853   0.10976   0.10465  -0.2058  0.2311  0.5189  -2.4260   0.0000   0.3575
  -1.200   1.7032   0.11028   0.10517  -0.2053  0.2287  0.5211  -2.4676   0.0000   0.3555
  -1.000   1.7210   0.11081   0.10569  -0.2047  0.2258  0.5229  -2.5106   0.0000   0.3536
  -0.800   1.7340   0.11099   0.10587  -0.2035  0.2228  0.5249  -2.5475   0.0000   0.3517
  -0.600   1.7470   0.11118   0.10605  -0.2022  0.2194  0.5270  -2.5862   0.0000   0.3498
  -0.400   1.7601   0.11139   0.10626  -0.2010  0.2162  0.5292  -2.6265   0.0000   0.3479
  -0.200   1.7737   0.11161   0.10649  -0.1999  0.2139  0.5315  -2.6679   0.0000   0.3460
   0.000   1.7878   0.11189   0.10677  -0.1988  0.2109  0.5339  -2.7101   0.0000   0.3442
   0.200   1.8022   0.11223   0.10711  -0.1978  0.2074  0.5362  -2.7530   0.0000   0.3424
   0.400   1.8169   0.11264   0.10750  -0.1969  0.2038  0.5385  -2.7965   0.0000   0.3406
   0.600   1.8324   0.11310   0.10795  -0.1960  0.2010  0.5407  -2.8414   0.0000   0.3389
   0.800   1.8488   0.11359   0.10844  -0.1953  0.1990  0.5428  -2.8879   0.0000   0.3372
   1.000   1.8655   0.11415   0.10900  -0.1946  0.1963  0.5446  -2.9390   0.0000   0.3355
   1.200   1.8766   0.11430   0.10915  -0.1932  0.1931  0.5463  -2.9824   0.0000   0.3338
   1.400   1.8870   0.11451   0.10936  -0.1917  0.1895  0.5482  -3.0251   0.0000   0.3321
   1.600   1.8975   0.11477   0.10962  -0.1902  0.1863  0.5500  -3.0680   0.0000   0.3304
   1.800   1.9085   0.11503   0.10990  -0.1889  0.1840  0.5519  -3.1124   0.0000   0.3287
   2.000   1.9199   0.11534   0.11022  -0.1875  0.1813  0.5538  -3.1606   0.0000   0.3270
   2.200   1.9316   0.11570   0.11059  -0.1862  0.1783  0.5557  -3.2097   0.0000   0.3254
   2.400   1.9434   0.11613   0.11100  -0.1850  0.1749  0.5577  -3.2592   0.0000   0.3238
   2.600   1.9565   0.11658   0.11145  -0.1840  0.1721  0.5597  -3.3114   0.0000   0.3222
   2.800   1.9705   0.11709   0.11197  -0.1830  0.1692  0.5619  -3.3702   0.0000   0.3207
   3.000   1.9850   0.11770   0.11257  -0.1822  0.1659  0.5641  -3.4338   0.0000   0.3192
   3.200   1.9998   0.11844   0.11328  -0.1814  0.1619  0.5664  -3.4984   0.0000   0.3177
   3.400   2.0083   0.11861   0.11346  -0.1798  0.1591  0.5679  -3.5499   0.0000   0.3161
   3.600   2.0172   0.11880   0.11367  -0.1782  0.1561  0.5693  -3.6023   0.0000   0.3145
   3.800   2.0258   0.11905   0.11393  -0.1766  0.1529  0.5707  -3.6593   0.0000   0.3130
   4.000   2.0337   0.11942   0.11429  -0.1750  0.1494  0.5719  -3.7162   0.0000   0.3114
   4.200   2.0419   0.11985   0.11473  -0.1735  0.1466  0.5731  -3.7739   0.0000   0.3099
   4.400   2.0503   0.12029   0.11518  -0.1720  0.1437  0.5745  -3.8354   0.0000   0.3084
   4.600   2.0586   0.12077   0.11567  -0.1705  0.1404  0.5759  -3.8983   0.0000   0.3069
   4.800   2.0669   0.12132   0.11621  -0.1691  0.1369  0.5774  -3.9626   0.0000   0.3054
   5.000   2.0771   0.12182   0.11673  -0.1678  0.1343  0.5792  -4.0331   0.0000   0.3040
   5.200   2.0874   0.12244   0.11734  -0.1667  0.1307  0.5813  -4.1045   0.0000   0.3026
   5.400   2.0979   0.12326   0.11815  -0.1657  0.1267  0.5839  -4.1776   0.0000   0.3012
   5.600   2.1120   0.12423   0.11912  -0.1651  0.1233  0.5868  -4.2671   0.0000   0.2999
   5.800   2.1194   0.12496   0.11985  -0.1637  0.1201  0.5882  -4.3399   0.0000   0.2985
   6.000   2.1236   0.12558   0.12047  -0.1620  0.1171  0.5892  -4.4035   0.0000   0.2971
   6.200   2.1289   0.12610   0.12101  -0.1604  0.1146  0.5901  -4.4701   0.0000   0.2956
   6.400   2.1344   0.12658   0.12151  -0.1588  0.1116  0.5909  -4.5377   0.0000   0.2942
   6.600   2.1386   0.12717   0.12211  -0.1571  0.1080  0.5917  -4.6041   0.0000   0.2928
   6.800   2.1422   0.12788   0.12282  -0.1555  0.1050  0.5925  -4.6717   0.0000   0.2914
   7.000   2.1458   0.12862   0.12359  -0.1539  0.1021  0.5933  -4.7396   0.0000   0.2900
   7.200   2.1489   0.12940   0.12437  -0.1524  0.0989  0.5942  -4.8065   0.0000   0.2887
   7.400   2.1526   0.13012   0.12511  -0.1509  0.0963  0.5952  -4.8754   0.0000   0.2873
   7.600   2.1562   0.13094   0.12595  -0.1495  0.0935  0.5964  -4.9442   0.0000   0.2860
   7.800   2.1581   0.13197   0.12700  -0.1481  0.0904  0.5976  -5.0087   0.0000   0.2847
   8.000   2.1615   0.13290   0.12794  -0.1468  0.0878  0.5990  -5.0777   0.0000   0.2835
   8.200   2.1650   0.13391   0.12897  -0.1456  0.0850  0.6004  -5.1474   0.0000   0.2822
   8.400   2.1671   0.13517   0.13024  -0.1445  0.0822  0.6020  -5.2130   0.0000   0.2811
   8.600   2.1718   0.13639   0.13148  -0.1437  0.0797  0.6040  -5.2874   0.0000   0.2799
   8.800   2.1776   0.13797   0.13308  -0.1432  0.0768  0.6067  -5.3667   0.0000   0.2789
   9.000   2.1822   0.13964   0.13474  -0.1428  0.0739  0.6089  -5.4419   0.0000   0.2779
   9.200   2.1818   0.14074   0.13589  -0.1416  0.0717  0.6095  -5.4994   0.0000   0.2767
   9.400   2.1805   0.14194   0.13712  -0.1406  0.0691  0.6101  -5.5536   0.0000   0.2756
   9.600   2.1780   0.14328   0.13848  -0.1396  0.0669  0.6107  -5.6040   0.0000   0.2746
   9.800   2.1767   0.14449   0.13974  -0.1387  0.0649  0.6112  -5.6579   0.0000   0.2736
  10.000   2.1742   0.14582   0.14110  -0.1379  0.0628  0.6118  -5.7077   0.0000   0.2726
  10.200   2.1707   0.14726   0.14257  -0.1372  0.0611  0.6123  -5.7573   0.0000   0.2717
  10.400   2.1694   0.14844   0.14380  -0.1365  0.0595  0.6129  -5.8149   0.0000   0.2708
  10.600   2.1662   0.14987   0.14527  -0.1360  0.0579  0.6134  -5.8654   0.0000   0.2699
  10.800   2.1630   0.15130   0.14674  -0.1356  0.0562  0.6140  -5.9157   0.0000   0.2691
  11.000   2.1592   0.15286   0.14835  -0.1354  0.0549  0.6146  -5.9633   0.0000   0.2684
  11.200   2.1571   0.15423   0.14977  -0.1352  0.0534  0.6152  -6.0173   0.0000   0.2676
  11.400   2.1529   0.15588   0.15147  -0.1352  0.0519  0.6159  -6.0625   0.0000   0.2670
  11.600   2.1478   0.15763   0.15326  -0.1354  0.0504  0.6165  -6.1062   0.0000   0.2665
  11.800   2.1446   0.15919   0.15487  -0.1356  0.0490  0.6172  -6.1585   0.0000   0.2659
  12.000   2.1399   0.16094   0.15667  -0.1360  0.0476  0.6179  -6.2046   0.0000   0.2654
  12.200   2.1352   0.16270   0.15847  -0.1365  0.0461  0.6186  -6.2494   0.0000   0.2650
  12.400   2.1293   0.16463   0.16046  -0.1373  0.0449  0.6195  -6.2886   0.0000   0.2647
  12.600   2.1251   0.16639   0.16227  -0.1381  0.0436  0.6204  -6.3350   0.0000   0.2644
  12.800   2.1203   0.16827   0.16420  -0.1390  0.0423  0.6215  -6.3778   0.0000   0.2641
  13.000   2.1136   0.17045   0.16644  -0.1404  0.0411  0.6226  -6.4109   0.0000   0.2641
  13.200   2.1105   0.17244   0.16847  -0.1417  0.0399  0.6246  -6.4597   0.0000   0.2639
  13.400   2.1129   0.17520   0.17128  -0.1442  0.0385  0.6297  -6.5321   0.0000   0.2641
  13.600   2.1050   0.17720   0.17334  -0.1455  0.0375  0.6301  -6.5578   0.0000   0.2641
  13.800   2.0973   0.17919   0.17537  -0.1469  0.0366  0.6305  -6.5836   0.0000   0.2641
  14.000   2.0900   0.18116   0.17741  -0.1484  0.0358  0.6308  -6.6097   0.0000   0.2641
  14.200   2.0838   0.18298   0.17929  -0.1497  0.0350  0.6312  -6.6416   0.0000   0.2641
  14.400   2.0761   0.18503   0.18140  -0.1514  0.0341  0.6315  -6.6641   0.0000   0.2642
  14.600   2.0679   0.18715   0.18359  -0.1533  0.0333  0.6318  -6.6833   0.0000   0.2645
  15.000   2.0530   0.19123   0.18778  -0.1569  0.0320  0.6325  -6.7268   0.0000   0.2649
  15.200   2.0473   0.19305   0.18965  -0.1585  0.0312  0.6328  -6.7568   0.0000   0.2650
  15.400   2.0395   0.19517   0.19183  -0.1606  0.0305  0.6332  -6.7742   0.0000   0.2653
  15.600   2.0327   0.19716   0.19387  -0.1625  0.0297  0.6336  -6.7965   0.0000   0.2655
  15.800   2.0237   0.19945   0.19622  -0.1649  0.0291  0.6339  -6.8054   0.0000   0.2661
  16.000   2.0185   0.20122   0.19804  -0.1667  0.0284  0.6343  -6.8351   0.0000   0.2662
  16.200   2.0124   0.20313   0.20000  -0.1686  0.0277  0.6347  -6.8585   0.0000   0.2664
  16.400   2.0057   0.20512   0.20204  -0.1708  0.0270  0.6352  -6.8779   0.0000   0.2668
  16.600   1.9998   0.20700   0.20395  -0.1728  0.0262  0.6356  -6.9012   0.0000   0.2670
  16.800   1.9913   0.20927   0.20628  -0.1754  0.0256  0.6360  -6.9070   0.0000   0.2676
  17.000   1.9872   0.21089   0.20794  -0.1771  0.0250  0.6365  -6.9396   0.0000   0.2677
  17.200   1.9816   0.21273   0.20983  -0.1792  0.0244  0.6370  -6.9625   0.0000   0.2680
  17.400   1.9756   0.21465   0.21179  -0.1815  0.0238  0.6376  -6.9812   0.0000   0.2684
  17.600   1.9708   0.21638   0.21356  -0.1835  0.0232  0.6382  -7.0075   0.0000   0.2686
  17.800   1.9633   0.21854   0.21577  -0.1862  0.0226  0.6388  -7.0143   0.0000   0.2692
  18.000   1.9598   0.22009   0.21736  -0.1880  0.0221  0.6395  -7.0473   0.0000   0.2693
  18.200   1.9567   0.22159   0.21890  -0.1898  0.0216  0.6404  -7.0823   0.0000   0.2694


