xflr5 v6.47

 Calculated polar for: NACA24018_theta30_Ku4.5_Kl0.5_d0.07_delta1.57

 1 1 Reynolds number fixed          Mach number fixed         

 xtrf =   1.000 (top)        1.000 (bottom)
 Mach =   0.000     Re =     0.600 e 6     Ncrit =   5.000

  alpha     CL        CD       CDp       Cm    Top Xtr Bot Xtr   Cpmin    Chinge    XCp    
 ------- -------- --------- --------- -------- ------- ------- -------- --------- ---------
 -15.000  -1.0662   0.03414   0.02851  -0.0676  0.9993  0.0301  -6.7474   0.0000   0.1631
 -14.800  -1.0574   0.03322   0.02757  -0.0674  0.9988  0.0304  -6.6497   0.0000   0.1631
 -14.600  -1.0467   0.03246   0.02677  -0.0674  0.9982  0.0307  -6.5465   0.0000   0.1629
 -14.400  -1.0351   0.03190   0.02618  -0.0674  0.9978  0.0311  -6.4397   0.0000   0.1625
 -14.200  -1.0298   0.03091   0.02516  -0.0659  0.9972  0.0314  -6.3547   0.0000   0.1639
 -14.000  -1.0166   0.03022   0.02444  -0.0659  0.9959  0.0318  -6.2426   0.0000   0.1634
 -13.800  -1.0004   0.02975   0.02393  -0.0664  0.9949  0.0322  -6.1208   0.0000   0.1622
 -13.600  -0.9897   0.02905   0.02320  -0.0657  0.9935  0.0326  -6.0182   0.0000   0.1625
 -13.200  -0.9499   0.02787   0.02192  -0.0674  0.9883  0.0335  -5.7538   0.0000   0.1583
 -13.000  -0.9305   0.02735   0.02137  -0.0682  0.9868  0.0339  -5.6254   0.0000   0.1561
 -12.800  -0.9155   0.02652   0.02052  -0.0682  0.9834  0.0343  -5.5117   0.0000   0.1552
 -12.600  -0.8964   0.02600   0.01999  -0.0688  0.9821  0.0348  -5.3844   0.0000   0.1531
 -12.400  -0.8824   0.02527   0.01925  -0.0683  0.9787  0.0353  -5.2739   0.0000   0.1528
 -12.200  -0.8635   0.02477   0.01873  -0.0687  0.9772  0.0359  -5.1484   0.0000   0.1509
 -12.000  -0.8493   0.02413   0.01807  -0.0680  0.9741  0.0364  -5.0387   0.0000   0.1506
 -11.800  -0.8311   0.02362   0.01753  -0.0681  0.9721  0.0369  -4.9176   0.0000   0.1489
 -11.600  -0.8152   0.02305   0.01693  -0.0677  0.9695  0.0375  -4.8082   0.0000   0.1481
 -11.400  -0.7995   0.02249   0.01634  -0.0671  0.9664  0.0380  -4.7014   0.0000   0.1474
 -11.000  -0.7722   0.02128   0.01510  -0.0652  0.9591  0.0392  -4.5017   0.0000   0.1474
 -10.800  -0.7661   0.02063   0.01444  -0.0628  0.9519  0.0398  -4.4234   0.0000   0.1503
 -10.600  -0.7577   0.02009   0.01390  -0.0607  0.9450  0.0404  -4.3387   0.0000   0.1524
 -10.400  -0.7433   0.01963   0.01343  -0.0596  0.9407  0.0411  -4.2377   0.0000   0.1525
 -10.200  -0.7296   0.01919   0.01296  -0.0584  0.9359  0.0419  -4.1428   0.0000   0.1529
 -10.000  -0.7118   0.01875   0.01250  -0.0579  0.9332  0.0426  -4.0395   0.0000   0.1518
  -9.800  -0.7010   0.01836   0.01209  -0.0560  0.9268  0.0432  -3.9554   0.0000   0.1535
  -9.600  -0.6832   0.01794   0.01164  -0.0555  0.9235  0.0439  -3.8537   0.0000   0.1524
  -9.400  -0.6682   0.01750   0.01120  -0.0544  0.9179  0.0448  -3.7597   0.0000   0.1524
  -9.200  -0.6495   0.01708   0.01078  -0.0539  0.9134  0.0458  -3.6561   0.0000   0.1508
  -9.000  -0.6277   0.01667   0.01037  -0.0541  0.9097  0.0470  -3.5456   0.0000   0.1478
  -8.800  -0.6084   0.01631   0.01000  -0.0537  0.9033  0.0482  -3.4431   0.0000   0.1459
  -8.600  -0.5831   0.01591   0.00957  -0.0544  0.8994  0.0493  -3.3269   0.0000   0.1408
  -8.400  -0.5596   0.01550   0.00915  -0.0548  0.8931  0.0505  -3.2168   0.0000   0.1361
  -8.200  -0.5319   0.01505   0.00870  -0.0560  0.8870  0.0520  -3.0971   0.0000   0.1286
  -8.000  -0.5017   0.01463   0.00827  -0.0577  0.8784  0.0537  -2.9731   0.0000   0.1187
  -7.800  -0.4638   0.01420   0.00779  -0.0608  0.8690  0.0557  -2.8334   0.0000   0.1020
  -7.600  -0.4260   0.01376   0.00732  -0.0641  0.8566  0.0578  -2.6965   0.0000   0.0822
  -7.400  -0.3918   0.01341   0.00693  -0.0666  0.8428  0.0601  -2.5745   0.0000   0.0620
  -7.200  -0.3589   0.01312   0.00659  -0.0688  0.8278  0.0623  -2.4581   0.0000   0.0395
  -7.000  -0.3307   0.01290   0.00629  -0.0701  0.8109  0.0643  -2.3533   0.0000   0.0186
  -6.800  -0.3067   0.01269   0.00604  -0.0705  0.7920  0.0670  -2.2583   0.0000  -0.0000
  -6.600  -0.2850   0.01255   0.00582  -0.0705  0.7726  0.0696  -2.1690   0.0000  -0.0179
  -6.200  -0.2468   0.01231   0.00544  -0.0693  0.7361  0.0746  -2.0105   0.0000  -0.0525
  -6.000  -0.2288   0.01220   0.00528  -0.0685  0.7193  0.0776  -1.9353   0.0000  -0.0718
  -5.800  -0.2108   0.01212   0.00513  -0.0677  0.7026  0.0807  -1.8611   0.0000  -0.0941
  -5.600  -0.1933   0.01202   0.00499  -0.0667  0.6856  0.0843  -1.7886   0.0000  -0.1194
  -5.400  -0.1757   0.01194   0.00485  -0.0658  0.6686  0.0883  -1.7167   0.0000  -0.1498
  -5.200  -0.1579   0.01188   0.00473  -0.0650  0.6521  0.0922  -1.6482   0.0000  -0.1880
  -5.000  -0.1400   0.01179   0.00461  -0.0641  0.6365  0.0975  -1.5811   0.0000  -0.2365
  -4.600  -0.1033   0.01166   0.00440  -0.0626  0.6053  0.1087  -1.4480   0.0000  -0.3901
  -4.400  -0.0845   0.01162   0.00431  -0.0619  0.5898  0.1150  -1.3819   0.0000  -0.5215
  -4.200  -0.0656   0.01154   0.00422  -0.0613  0.5752  0.1237  -1.3164   0.0000  -0.7316
  -4.000  -0.0463   0.01146   0.00413  -0.0608  0.5612  0.1339  -1.2518   0.0000  -1.1241
  -3.600  -0.0071   0.01130   0.00396  -0.0598  0.5324  0.1614  -1.1299   0.0000  -8.5430
  -3.400   0.0131   0.01118   0.00388  -0.0595  0.5182  0.1841  -1.0695   0.0000   4.9829
  -3.200   0.0340   0.01098   0.00377  -0.0595  0.5050  0.2215  -1.0094   0.0000   2.0611
  -3.000   0.0567   0.01062   0.00364  -0.0600  0.4925  0.2937  -0.9509   0.0000   1.3400
  -2.800   0.0811   0.01033   0.00357  -0.0608  0.4796  0.3653  -0.8915   0.0000   1.0198
  -2.600   0.1052   0.01022   0.00355  -0.0614  0.4665  0.4071  -0.8355   0.0000   0.8465
  -2.400   0.1293   0.01017   0.00354  -0.0619  0.4538  0.4385  -0.7900   0.0000   0.7373
  -2.200   0.1540   0.01013   0.00355  -0.0625  0.4417  0.4686  -0.8149   0.0000   0.6615
  -2.000   0.1793   0.01011   0.00357  -0.0631  0.4300  0.4967  -0.8410   0.0000   0.6061
  -1.800   0.2045   0.01012   0.00360  -0.0638  0.4187  0.5193  -0.8676   0.0000   0.5642
  -1.600   0.2293   0.01015   0.00364  -0.0643  0.4079  0.5386  -0.8943   0.0000   0.5316
  -1.400   0.2543   0.01019   0.00368  -0.0649  0.3980  0.5588  -0.9211   0.0000   0.5052
  -1.200   0.2798   0.01023   0.00373  -0.0655  0.3890  0.5766  -0.9485   0.0000   0.4835
  -1.000   0.3050   0.01028   0.00379  -0.0661  0.3810  0.5930  -0.9762   0.0000   0.4653
  -0.800   0.3307   0.01033   0.00387  -0.0668  0.3726  0.6117  -1.0054   0.0000   0.4499
  -0.600   0.3565   0.01040   0.00395  -0.0675  0.3648  0.6306  -1.0348   0.0000   0.4367
  -0.400   0.3814   0.01048   0.00403  -0.0681  0.3570  0.6460  -1.0651   0.0000   0.4252
  -0.200   0.4057   0.01056   0.00411  -0.0684  0.3504  0.6568  -1.0952   0.0000   0.4150
   0.000   0.4290   0.01066   0.00418  -0.0686  0.3442  0.6649  -1.1245   0.0000   0.4058
   0.200   0.4523   0.01075   0.00427  -0.0688  0.3388  0.6731  -1.1541   0.0000   0.3976
   0.400   0.4755   0.01085   0.00435  -0.0689  0.3328  0.6806  -1.1838   0.0000   0.3901
   0.600   0.4982   0.01097   0.00445  -0.0690  0.3273  0.6886  -1.2132   0.0000   0.3833
   0.800   0.5214   0.01106   0.00454  -0.0691  0.3225  0.6964  -1.2432   0.0000   0.3771
   1.000   0.5444   0.01116   0.00464  -0.0692  0.3177  0.7044  -1.2731   0.0000   0.3714
   1.200   0.5663   0.01130   0.00476  -0.0691  0.3130  0.7118  -1.3033   0.0000   0.3660
   1.400   0.5893   0.01139   0.00487  -0.0692  0.3088  0.7197  -1.3350   0.0000   0.3612
   1.600   0.6113   0.01151   0.00498  -0.0691  0.3044  0.7270  -1.3662   0.0000   0.3565
   1.800   0.6333   0.01164   0.00511  -0.0690  0.3005  0.7349  -1.3974   0.0000   0.3522
   2.000   0.6545   0.01176   0.00524  -0.0688  0.2973  0.7420  -1.4282   0.0000   0.3480
   2.200   0.6765   0.01187   0.00536  -0.0687  0.2940  0.7493  -1.4599   0.0000   0.3442
   2.400   0.6971   0.01200   0.00549  -0.0683  0.2904  0.7560  -1.4920   0.0000   0.3404
   2.600   0.7175   0.01215   0.00564  -0.0679  0.2867  0.7631  -1.5242   0.0000   0.3369
   2.800   0.7375   0.01229   0.00578  -0.0674  0.2834  0.7695  -1.5561   0.0000   0.3334
   3.000   0.7573   0.01241   0.00593  -0.0669  0.2802  0.7763  -1.5880   0.0000   0.3300
   3.200   0.7778   0.01255   0.00607  -0.0665  0.2769  0.7827  -1.6218   0.0000   0.3270
   3.400   0.7952   0.01270   0.00623  -0.0655  0.2739  0.7889  -1.6534   0.0000   0.3236
   3.600   0.8154   0.01289   0.00640  -0.0652  0.2706  0.7953  -1.6878   0.0000   0.3209
   3.800   0.8318   0.01301   0.00656  -0.0640  0.2679  0.8011  -1.7188   0.0000   0.3176
   4.000   0.8508   0.01316   0.00672  -0.0633  0.2648  0.8073  -1.7540   0.0000   0.3148
   4.200   0.8690   0.01333   0.00690  -0.0625  0.2618  0.8127  -1.7888   0.0000   0.3121
   4.400   0.8832   0.01350   0.00708  -0.0609  0.2590  0.8179  -1.8197   0.0000   0.3089
   4.600   0.9020   0.01369   0.00727  -0.0603  0.2562  0.8232  -1.8553   0.0000   0.3065
   4.800   0.9180   0.01384   0.00744  -0.0590  0.2536  0.8279  -1.8882   0.0000   0.3037
   5.000   0.9311   0.01400   0.00763  -0.0572  0.2508  0.8328  -1.9184   0.0000   0.3006
   5.200   0.9495   0.01419   0.00783  -0.0565  0.2479  0.8377  -1.9541   0.0000   0.2984
   5.400   0.9641   0.01440   0.00803  -0.0551  0.2453  0.8419  -1.9859   0.0000   0.2958
   5.600   0.9732   0.01460   0.00825  -0.0525  0.2429  0.8462  -2.0131   0.0000   0.2923
   5.800   0.9903   0.01478   0.00845  -0.0516  0.2404  0.8506  -2.0497   0.0000   0.2902
   6.000   1.0127   0.01499   0.00867  -0.0518  0.2373  0.8547  -2.0922   0.0000   0.2890
   6.200   1.0172   0.01517   0.00888  -0.0483  0.2351  0.8580  -2.1153   0.0000   0.2850
   6.400   1.0278   0.01540   0.00913  -0.0462  0.2328  0.8616  -2.1453   0.0000   0.2822
   6.600   1.0441   0.01568   0.00939  -0.0452  0.2303  0.8654  -2.1827   0.0000   0.2803
   6.800   1.0663   0.01592   0.00964  -0.0454  0.2279  0.8690  -2.2279   0.0000   0.2793
   7.000   1.0694   0.01610   0.00987  -0.0418  0.2259  0.8718  -2.2517   0.0000   0.2755
   7.200   1.0785   0.01634   0.01013  -0.0394  0.2234  0.8748  -2.2838   0.0000   0.2726
   7.400   1.0919   0.01661   0.01042  -0.0379  0.2207  0.8779  -2.3212   0.0000   0.2706
   7.600   1.1104   0.01693   0.01073  -0.0376  0.2180  0.8808  -2.3648   0.0000   0.2694
   7.800   1.1274   0.01724   0.01104  -0.0369  0.2156  0.8833  -2.4066   0.0000   0.2680
   8.000   1.1300   0.01747   0.01132  -0.0333  0.2137  0.8857  -2.4314   0.0000   0.2644
   8.200   1.1372   0.01775   0.01163  -0.0307  0.2114  0.8882  -2.4635   0.0000   0.2616
   8.400   1.1485   0.01806   0.01196  -0.0289  0.2087  0.8908  -2.5012   0.0000   0.2596
   8.600   1.1642   0.01844   0.01233  -0.0282  0.2059  0.8934  -2.5466   0.0000   0.2583
   8.800   1.1856   0.01886   0.01275  -0.0286  0.2030  0.8958  -2.5998   0.0000   0.2579
   9.000   1.1889   0.01915   0.01308  -0.0254  0.2013  0.8977  -2.6288   0.0000   0.2548
   9.200   1.1920   0.01947   0.01344  -0.0222  0.1993  0.8997  -2.6576   0.0000   0.2517
   9.400   1.1992   0.01983   0.01383  -0.0198  0.1971  0.9018  -2.6918   0.0000   0.2493
   9.600   1.2095   0.02025   0.01426  -0.0182  0.1945  0.9040  -2.7303   0.0000   0.2475
   9.800   1.2227   0.02074   0.01476  -0.0173  0.1918  0.9062  -2.7763   0.0000   0.2463
  10.000   1.2417   0.02121   0.01525  -0.0174  0.1892  0.9082  -2.8326   0.0000   0.2458
  10.200   1.2511   0.02162   0.01570  -0.0157  0.1869  0.9099  -2.8748   0.0000   0.2440
  10.400   1.2515   0.02203   0.01614  -0.0123  0.1848  0.9119  -2.9031   0.0000   0.2409
  10.600   1.2561   0.02252   0.01665  -0.0098  0.1825  0.9139  -2.9379   0.0000   0.2386
  10.800   1.2638   0.02308   0.01724  -0.0081  0.1801  0.9159  -2.9810   0.0000   0.2369
  11.000   1.2746   0.02370   0.01787  -0.0071  0.1778  0.9177  -3.0300   0.0000   0.2357
  11.200   1.2904   0.02424   0.01844  -0.0069  0.1754  0.9193  -3.0877   0.0000   0.2351
  11.400   1.3072   0.02486   0.01909  -0.0070  0.1723  0.9205  -3.1475   0.0000   0.2347
  11.600   1.3114   0.02550   0.01976  -0.0049  0.1697  0.9220  -3.1859   0.0000   0.2327
  11.800   1.3108   0.02618   0.02046  -0.0020  0.1675  0.9237  -3.2158   0.0000   0.2302
  12.000   1.3143   0.02690   0.02120   0.0000  0.1654  0.9255  -3.2563   0.0000   0.2283
  12.200   1.3232   0.02755   0.02190   0.0012  0.1633  0.9271  -3.3095   0.0000   0.2270
  12.400   1.3333   0.02829   0.02268   0.0019  0.1607  0.9285  -3.3656   0.0000   0.2260
  12.600   1.3434   0.02918   0.02359   0.0025  0.1578  0.9298  -3.4217   0.0000   0.2253
  12.800   1.3526   0.03024   0.02467   0.0028  0.1548  0.9309  -3.4757   0.0000   0.2246
  13.000   1.3650   0.03120   0.02566   0.0028  0.1522  0.9318  -3.5388   0.0000   0.2243
  13.200   1.3677   0.03202   0.02653   0.0046  0.1500  0.9330  -3.5848   0.0000   0.2225
  13.400   1.3683   0.03294   0.02749   0.0065  0.1478  0.9344  -3.6262   0.0000   0.2207
  13.600   1.3708   0.03402   0.02860   0.0078  0.1454  0.9357  -3.6711   0.0000   0.2193
  13.800   1.3732   0.03532   0.02992   0.0088  0.1428  0.9368  -3.7152   0.0000   0.2182
  14.000   1.3788   0.03649   0.03114   0.0094  0.1404  0.9379  -3.7678   0.0000   0.2174
  14.200   1.3854   0.03770   0.03240   0.0097  0.1376  0.9389  -3.8240   0.0000   0.2167
  14.400   1.3905   0.03915   0.03388   0.0099  0.1346  0.9398  -3.8764   0.0000   0.2162
  14.600   1.3940   0.04084   0.03559   0.0099  0.1319  0.9404  -3.9240   0.0000   0.2157
  14.800   1.3991   0.04246   0.03726   0.0098  0.1295  0.9411  -3.9756   0.0000   0.2154
  15.000   1.4059   0.04402   0.03887   0.0094  0.1270  0.9417  -4.0316   0.0000   0.2152
  15.200   1.4057   0.04567   0.04056   0.0100  0.1246  0.9424  -4.0707   0.0000   0.2143
  15.400   1.4015   0.04750   0.04244   0.0109  0.1223  0.9433  -4.1006   0.0000   0.2132
  15.600   1.3972   0.04963   0.04461   0.0112  0.1201  0.9440  -4.1309   0.0000   0.2124
  15.800   1.3967   0.05153   0.04656   0.0114  0.1181  0.9446  -4.1714   0.0000   0.2118
  16.000   1.3961   0.05348   0.04857   0.0114  0.1158  0.9453  -4.2113   0.0000   0.2112
  16.200   1.3934   0.05571   0.05085   0.0113  0.1134  0.9460  -4.2446   0.0000   0.2108
  16.400   1.3883   0.05832   0.05351   0.0109  0.1110  0.9466  -4.2696   0.0000   0.2105
  16.600   1.3812   0.06126   0.05650   0.0102  0.1089  0.9471  -4.2876   0.0000   0.2104
  16.800   1.3803   0.06362   0.05893   0.0096  0.1069  0.9475  -4.3262   0.0000   0.2103
  17.000   1.3775   0.06626   0.06163   0.0088  0.1047  0.9478  -4.3578   0.0000   0.2104
  17.200   1.3721   0.06922   0.06465   0.0078  0.1024  0.9480  -4.3804   0.0000   0.2105
  17.400   1.3638   0.07258   0.06807   0.0066  0.1002  0.9483  -4.3924   0.0000   0.2108
  17.600   1.3544   0.07612   0.07166   0.0053  0.0983  0.9484  -4.3999   0.0000   0.2112
  17.800   1.3505   0.07907   0.07468   0.0041  0.0965  0.9486  -4.4249   0.0000   0.2115
  18.000   1.3442   0.08229   0.07797   0.0028  0.0944  0.9489  -4.4413   0.0000   0.2119
  18.200   1.3358   0.08583   0.08157   0.0013  0.0923  0.9491  -4.4493   0.0000   0.2124
  18.400   1.3249   0.08972   0.08551  -0.0004  0.0903  0.9493  -4.4473   0.0000   0.2132
  18.600   1.3144   0.09364   0.08948  -0.0023  0.0885  0.9495  -4.4448   0.0000   0.2140
  18.800   1.3096   0.09683   0.09275  -0.0038  0.0867  0.9497  -4.4628   0.0000   0.2146
  19.000   1.3036   0.10021   0.09618  -0.0056  0.0847  0.9499  -4.4751   0.0000   0.2154
  19.200   1.2956   0.10387   0.09989  -0.0075  0.0828  0.9500  -4.4791   0.0000   0.2163
  19.400   1.2857   0.10784   0.10390  -0.0096  0.0809  0.9501  -4.4742   0.0000   0.2174
  19.600   1.2771   0.11166   0.10777  -0.0118  0.0791  0.9502  -4.4729   0.0000   0.2186
  19.800   1.2748   0.11465   0.11082  -0.0136  0.0774  0.9503  -4.4953   0.0000   0.2194
  20.000   1.2695   0.11806   0.11428  -0.0156  0.0755  0.9504  -4.5061   0.0000   0.2205
  20.200   1.2636   0.12157   0.11783  -0.0178  0.0735  0.9505  -4.5157   0.0000   0.2217
  20.400   1.2559   0.12535   0.12165  -0.0202  0.0716  0.9506  -4.5163   0.0000   0.2232
  20.600   1.2521   0.12864   0.12498  -0.0224  0.0700  0.9507  -4.5320   0.0000   0.2244
  20.800   1.2495   0.13146   0.12785  -0.0242  0.0683  0.9509  -4.5544   0.0000   0.2252
  21.000   1.2450   0.13441   0.13083  -0.0259  0.0666  0.9512  -4.5686   0.0000   0.2261
  21.200   1.2387   0.13755   0.13400  -0.0277  0.0649  0.9515  -4.5743   0.0000   0.2271
  21.400   1.2319   0.14072   0.13719  -0.0295  0.0633  0.9519  -4.5766   0.0000   0.2281
  21.600   1.2286   0.14343   0.13994  -0.0312  0.0620  0.9523  -4.5940   0.0000   0.2289
  21.800   1.2275   0.14591   0.14246  -0.0328  0.0605  0.9527  -4.6203   0.0000   0.2297
  22.000   1.2246   0.14881   0.14540  -0.0348  0.0589  0.9529  -4.6359   0.0000   0.2308
  22.200   1.2214   0.15182   0.14844  -0.0370  0.0573  0.9531  -4.6491   0.0000   0.2321
  22.400   1.2179   0.15494   0.15157  -0.0394  0.0558  0.9533  -4.6594   0.0000   0.2335
  22.600   1.2171   0.15764   0.15431  -0.0415  0.0545  0.9535  -4.6850   0.0000   0.2347
  22.800   1.2176   0.16015   0.15686  -0.0435  0.0531  0.9537  -4.7175   0.0000   0.2357
  23.000   1.2168   0.16287   0.15961  -0.0457  0.0516  0.9539  -4.7425   0.0000   0.2369
  23.200   1.2141   0.16592   0.16268  -0.0482  0.0502  0.9541  -4.7560   0.0000   0.2385
  23.400   1.2124   0.16881   0.16558  -0.0507  0.0489  0.9543  -4.7743   0.0000   0.2399
  23.600   1.2141   0.17115   0.16797  -0.0527  0.0479  0.9545  -4.8106   0.0000   0.2409
  23.800   1.2143   0.17375   0.17061  -0.0550  0.0467  0.9547  -4.8375   0.0000   0.2421
  24.000   1.2147   0.17631   0.17320  -0.0573  0.0454  0.9548  -4.8653   0.0000   0.2434
  24.200   1.2146   0.17894   0.17585  -0.0597  0.0442  0.9551  -4.8896   0.0000   0.2447
  24.400   1.2122   0.18195   0.17886  -0.0623  0.0430  0.9553  -4.8992   0.0000   0.2463
  24.600   1.2136   0.18432   0.18127  -0.0645  0.0420  0.9556  -4.9306   0.0000   0.2474
  24.800   1.2156   0.18659   0.18358  -0.0666  0.0410  0.9560  -4.9656   0.0000   0.2485
  25.000   1.2161   0.18916   0.18618  -0.0691  0.0399  0.9562  -4.9902   0.0000   0.2498


