xflr5 v6.47

 Calculated polar for: NACA24018_theta30_Ku4.5_Kl0.5_d0.24_delta7.31

 1 1 Reynolds number fixed          Mach number fixed         

 xtrf =   1.000 (top)        1.000 (bottom)
 Mach =   0.000     Re =     0.600 e 6     Ncrit =   5.000

  alpha     CL        CD       CDp       Cm    Top Xtr Bot Xtr   Cpmin    Chinge    XCp    
 ------- -------- --------- --------- -------- ------- ------- -------- --------- ---------
 -14.800  -0.7891   0.04352   0.03847  -0.0887  0.8857  0.0392  -5.5691   0.0000   0.1131
 -14.600  -0.7684   0.04284   0.03775  -0.0899  0.8839  0.0398  -5.4383   0.0000   0.1086
 -14.400  -0.7454   0.04232   0.03718  -0.0913  0.8829  0.0403  -5.3009   0.0000   0.1031
 -14.200  -0.7205   0.04176   0.03661  -0.0932  0.8822  0.0409  -5.1588   0.0000   0.0962
 -13.800  -0.6745   0.04052   0.03535  -0.0959  0.8763  0.0421  -4.8881   0.0000   0.0832
 -13.600  -0.6477   0.04013   0.03495  -0.0977  0.8751  0.0429  -4.7474   0.0000   0.0744
 -13.400  -0.6194   0.03982   0.03462  -0.0995  0.8742  0.0438  -4.6034   0.0000   0.0642
 -13.200  -0.5902   0.03959   0.03435  -0.1014  0.8735  0.0447  -4.4582   0.0000   0.0526
 -13.000  -0.5591   0.03935   0.03412  -0.1038  0.8730  0.0456  -4.3088   0.0000   0.0382
 -12.800  -0.5366   0.03882   0.03359  -0.1048  0.8683  0.0464  -4.1862   0.0000   0.0285
 -12.600  -0.5080   0.03860   0.03337  -0.1065  0.8670  0.0474  -4.0467   0.0000   0.0134
 -12.400  -0.4780   0.03843   0.03318  -0.1085  0.8660  0.0484  -3.9052   0.0000  -0.0045
 -12.200  -0.4470   0.03828   0.03301  -0.1104  0.8652  0.0494  -3.7629   0.0000  -0.0256
 -12.000  -0.4140   0.03814   0.03289  -0.1129  0.8646  0.0506  -3.6159   0.0000  -0.0524
 -11.800  -0.3812   0.03806   0.03281  -0.1152  0.8641  0.0520  -3.4719   0.0000  -0.0833
 -11.600  -0.3574   0.03784   0.03259  -0.1160  0.8607  0.0533  -3.3593   0.0000  -0.1067
 -11.400  -0.3288   0.03774   0.03247  -0.1175  0.8587  0.0546  -3.2359   0.0000  -0.1411
 -11.200  -0.2962   0.03765   0.03241  -0.1198  0.8576  0.0560  -3.1032   0.0000  -0.1905
 -11.000  -0.2640   0.03759   0.03236  -0.1219  0.8567  0.0577  -2.9731   0.0000  -0.2507
 -10.800  -0.2311   0.03752   0.03228  -0.1240  0.8559  0.0595  -2.8435   0.0000  -0.3293
 -10.200  -0.1385   0.03730   0.03209  -0.1294  0.8504  0.0653  -2.4933   0.0000  -0.7482
 -10.000  -0.1032   0.03712   0.03193  -0.1319  0.8483  0.0676  -2.3710   0.0000  -1.1102
  -9.800  -0.0659   0.03689   0.03170  -0.1345  0.8468  0.0704  -2.2462   0.0000  -1.9143
  -9.600  -0.0282   0.03671   0.03153  -0.1373  0.8458  0.0734  -2.1228   0.0000  -4.8879
  -9.400   0.0083   0.03660   0.03144  -0.1399  0.8452  0.0768  -2.0042   0.0000  17.9407
  -9.200   0.0260   0.03683   0.03170  -0.1396  0.8400  0.0792  -1.9300   0.0000   5.9040
  -8.200   0.1337   0.03902   0.03407  -0.1413  0.7973  0.0964  -1.5395   0.0000   1.3486
  -8.000   0.1647   0.03920   0.03428  -0.1429  0.7875  0.1019  -1.4505   0.0000   1.1500
  -7.800   0.2018   0.03917   0.03428  -0.1454  0.7816  0.1087  -1.3524   0.0000   0.9955
  -7.600   0.2419   0.03899   0.03413  -0.1484  0.7751  0.1172  -1.2511   0.0000   0.8827
  -7.400   0.2885   0.03852   0.03368  -0.1523  0.7676  0.1284  -1.1417   0.0000   0.7929
  -7.200   0.3440   0.03768   0.03284  -0.1576  0.7579  0.1444  -1.0265   0.0000   0.7198
  -7.000   0.4111   0.03651   0.03169  -0.1649  0.7451  0.1705  -0.9042   0.0000   0.6600
  -6.800   0.5066   0.03486   0.03000  -0.1772  0.7138  0.2303  -0.8612   0.0000   0.6066
  -6.600   0.5944   0.03574   0.03083  -0.1894  0.6473  0.3416  -0.9316   0.0000   0.5738
  -6.400   0.6348   0.03690   0.03188  -0.1929  0.6054  0.3884  -0.9696   0.0000   0.5582
  -6.200   0.6669   0.03781   0.03268  -0.1949  0.5726  0.4133  -1.0021   0.0000   0.5458
  -6.000   0.6957   0.03855   0.03330  -0.1962  0.5450  0.4313  -1.0324   0.0000   0.5349
  -5.600   0.7506   0.03977   0.03433  -0.1981  0.5016  0.4606  -1.0918   0.0000   0.5158
  -5.400   0.7776   0.04032   0.03480  -0.1990  0.4813  0.4720  -1.1227   0.0000   0.5072
  -5.200   0.8025   0.04079   0.03516  -0.1995  0.4628  0.4810  -1.1527   0.0000   0.4994
  -5.000   0.8290   0.04129   0.03560  -0.2003  0.4458  0.4914  -1.1852   0.0000   0.4919
  -4.800   0.8572   0.04183   0.03609  -0.2013  0.4314  0.5046  -1.2192   0.0000   0.4848
  -4.600   0.8879   0.04248   0.03667  -0.2028  0.4179  0.5198  -1.2554   0.0000   0.4779
  -4.400   0.9120   0.04290   0.03705  -0.2031  0.4053  0.5298  -1.2865   0.0000   0.4718
  -4.200   0.9376   0.04335   0.03743  -0.2037  0.3932  0.5361  -1.3191   0.0000   0.4659
  -4.000   0.9599   0.04369   0.03771  -0.2037  0.3830  0.5400  -1.3491   0.0000   0.4605
  -3.800   0.9800   0.04394   0.03792  -0.2032  0.3736  0.5437  -1.3774   0.0000   0.4553
  -3.600   1.0014   0.04424   0.03818  -0.2030  0.3654  0.5477  -1.4078   0.0000   0.4503
  -3.400   1.0244   0.04461   0.03850  -0.2031  0.3569  0.5520  -1.4403   0.0000   0.4455
  -3.200   1.0485   0.04503   0.03886  -0.2034  0.3492  0.5562  -1.4739   0.0000   0.4409
  -3.000   1.0692   0.04530   0.03911  -0.2031  0.3432  0.5596  -1.5047   0.0000   0.4365
  -2.800   1.0884   0.04554   0.03933  -0.2025  0.3372  0.5628  -1.5342   0.0000   0.4323
  -2.600   1.1085   0.04583   0.03959  -0.2021  0.3318  0.5663  -1.5648   0.0000   0.4282
  -2.400   1.1304   0.04616   0.03991  -0.2019  0.3268  0.5701  -1.5985   0.0000   0.4243
  -2.200   1.1535   0.04657   0.04028  -0.2020  0.3210  0.5740  -1.6343   0.0000   0.4205
  -2.000   1.1754   0.04696   0.04062  -0.2019  0.3155  0.5777  -1.6699   0.0000   0.4168
  -1.800   1.1931   0.04716   0.04083  -0.2011  0.3115  0.5809  -1.7017   0.0000   0.4132
  -1.600   1.2122   0.04741   0.04109  -0.2005  0.3074  0.5843  -1.7349   0.0000   0.4098
  -1.400   1.2323   0.04774   0.04140  -0.2000  0.3029  0.5878  -1.7693   0.0000   0.4064
  -1.200   1.2536   0.04815   0.04177  -0.1998  0.2982  0.5915  -1.8050   0.0000   0.4032
  -1.000   1.2778   0.04864   0.04225  -0.2001  0.2942  0.5954  -1.8440   0.0000   0.4001
  -0.800   1.2951   0.04886   0.04248  -0.1992  0.2905  0.5983  -1.8776   0.0000   0.3970
  -0.600   1.3117   0.04907   0.04270  -0.1982  0.2866  0.6012  -1.9106   0.0000   0.3940
  -0.400   1.3293   0.04936   0.04297  -0.1973  0.2826  0.6042  -1.9448   0.0000   0.3910
  -0.200   1.3483   0.04971   0.04331  -0.1967  0.2791  0.6074  -1.9806   0.0000   0.3882
   0.000   1.3694   0.05011   0.04372  -0.1965  0.2760  0.6107  -2.0196   0.0000   0.3855
   0.200   1.3931   0.05066   0.04425  -0.1967  0.2725  0.6144  -2.0626   0.0000   0.3829
   0.400   1.4092   0.05093   0.04452  -0.1956  0.2691  0.6171  -2.0975   0.0000   0.3802
   0.600   1.4232   0.05115   0.04475  -0.1942  0.2657  0.6196  -2.1300   0.0000   0.3775
   0.800   1.4386   0.05143   0.04504  -0.1930  0.2627  0.6223  -2.1643   0.0000   0.3749
   1.000   1.4559   0.05176   0.04538  -0.1921  0.2599  0.6251  -2.2035   0.0000   0.3724
   1.200   1.4746   0.05218   0.04582  -0.1915  0.2568  0.6282  -2.2452   0.0000   0.3700
   1.400   1.4960   0.05276   0.04639  -0.1913  0.2532  0.6317  -2.2905   0.0000   0.3677
   1.600   1.5173   0.05339   0.04699  -0.1911  0.2495  0.6349  -2.3358   0.0000   0.3655
   1.800   1.5288   0.05358   0.04720  -0.1893  0.2469  0.6369  -2.3694   0.0000   0.3631
   2.000   1.5421   0.05379   0.04744  -0.1878  0.2446  0.6388  -2.4051   0.0000   0.3607
   2.200   1.5561   0.05406   0.04774  -0.1864  0.2418  0.6410  -2.4419   0.0000   0.3584
   2.400   1.5709   0.05441   0.04810  -0.1851  0.2386  0.6436  -2.4799   0.0000   0.3562
   2.600   1.5873   0.05489   0.04858  -0.1842  0.2351  0.6464  -2.5202   0.0000   0.3540
   2.800   1.6061   0.05552   0.04920  -0.1837  0.2317  0.6495  -2.5637   0.0000   0.3520
   3.000   1.6293   0.05624   0.04993  -0.1838  0.2288  0.6527  -2.6147   0.0000   0.3501
   3.200   1.6445   0.05664   0.05036  -0.1827  0.2262  0.6547  -2.6571   0.0000   0.3481
   3.400   1.6546   0.05686   0.05060  -0.1807  0.2237  0.6562  -2.6945   0.0000   0.3459
   3.600   1.6648   0.05715   0.05091  -0.1788  0.2212  0.6579  -2.7322   0.0000   0.3437
   3.800   1.6750   0.05755   0.05132  -0.1769  0.2186  0.6597  -2.7701   0.0000   0.3416
   4.000   1.6870   0.05799   0.05179  -0.1753  0.2162  0.6616  -2.8121   0.0000   0.3396
   4.200   1.7011   0.05847   0.05231  -0.1740  0.2136  0.6636  -2.8595   0.0000   0.3376
   4.400   1.7164   0.05907   0.05292  -0.1730  0.2105  0.6659  -2.9091   0.0000   0.3358
   4.600   1.7331   0.05983   0.05368  -0.1722  0.2071  0.6685  -2.9613   0.0000   0.3340
   4.800   1.7537   0.06090   0.05473  -0.1721  0.2034  0.6717  -3.0200   0.0000   0.3324
   5.000   1.7677   0.06144   0.05532  -0.1709  0.2010  0.6736  -3.0710   0.0000   0.3306
   5.200   1.7759   0.06175   0.05566  -0.1688  0.1986  0.6748  -3.1137   0.0000   0.3286
   5.400   1.7841   0.06215   0.05610  -0.1667  0.1960  0.6759  -3.1566   0.0000   0.3266
   5.600   1.7918   0.06269   0.05667  -0.1646  0.1931  0.6769  -3.1988   0.0000   0.3247
   5.800   1.7995   0.06335   0.05733  -0.1625  0.1902  0.6781  -3.2413   0.0000   0.3228
   6.000   1.8090   0.06392   0.05794  -0.1607  0.1878  0.6794  -3.2886   0.0000   0.3209
   6.200   1.8194   0.06449   0.05855  -0.1590  0.1854  0.6810  -3.3397   0.0000   0.3191
   6.400   1.8300   0.06515   0.05925  -0.1575  0.1826  0.6827  -3.3939   0.0000   0.3174
   6.600   1.8408   0.06600   0.06012  -0.1560  0.1794  0.6847  -3.4505   0.0000   0.3157
   6.800   1.8519   0.06714   0.06125  -0.1548  0.1762  0.6868  -3.5126   0.0000   0.3141
   7.000   1.8712   0.06835   0.06250  -0.1547  0.1733  0.6898  -3.5922   0.0000   0.3127
   7.200   1.8869   0.06949   0.06368  -0.1540  0.1702  0.6921  -3.6670   0.0000   0.3113
   7.400   1.8914   0.07017   0.06438  -0.1517  0.1674  0.6929  -3.7175   0.0000   0.3095
   7.600   1.8946   0.07103   0.06526  -0.1494  0.1645  0.6936  -3.7654   0.0000   0.3077
   7.800   1.8991   0.07185   0.06613  -0.1472  0.1620  0.6944  -3.8163   0.0000   0.3059
   8.000   1.9049   0.07263   0.06695  -0.1452  0.1592  0.6952  -3.8701   0.0000   0.3043
   8.200   1.9101   0.07353   0.06789  -0.1432  0.1563  0.6960  -3.9264   0.0000   0.3026
   8.400   1.9136   0.07467   0.06905  -0.1412  0.1534  0.6968  -3.9816   0.0000   0.3009
   8.600   1.9176   0.07580   0.07021  -0.1392  0.1508  0.6976  -4.0381   0.0000   0.2993
   8.800   1.9232   0.07680   0.07127  -0.1375  0.1480  0.6986  -4.0984   0.0000   0.2978
   9.000   1.9273   0.07798   0.07250  -0.1357  0.1451  0.6996  -4.1555   0.0000   0.2962
   9.200   1.9305   0.07933   0.07388  -0.1340  0.1421  0.7007  -4.2108   0.0000   0.2948
   9.400   1.9338   0.08084   0.07541  -0.1324  0.1395  0.7021  -4.2685   0.0000   0.2933
   9.600   1.9403   0.08223   0.07686  -0.1312  0.1368  0.7037  -4.3393   0.0000   0.2920
   9.800   1.9478   0.08390   0.07858  -0.1303  0.1337  0.7057  -4.4133   0.0000   0.2908
  10.000   1.9603   0.08639   0.08108  -0.1306  0.1301  0.7091  -4.5030   0.0000   0.2900
  10.200   1.9680   0.08825   0.08298  -0.1300  0.1274  0.7108  -4.5783   0.0000   0.2889
  10.400   1.9686   0.08969   0.08448  -0.1285  0.1248  0.7112  -4.6330   0.0000   0.2875
  10.600   1.9674   0.09135   0.08619  -0.1269  0.1221  0.7117  -4.6825   0.0000   0.2863
  10.800   1.9644   0.09322   0.08810  -0.1254  0.1194  0.7122  -4.7266   0.0000   0.2851
  11.000   1.9635   0.09486   0.08979  -0.1241  0.1169  0.7127  -4.7764   0.0000   0.2839
  11.200   1.9619   0.09661   0.09160  -0.1228  0.1141  0.7132  -4.8239   0.0000   0.2828
  11.400   1.9590   0.09857   0.09360  -0.1217  0.1114  0.7137  -4.8672   0.0000   0.2818
  11.600   1.9547   0.10073   0.09582  -0.1208  0.1091  0.7142  -4.9061   0.0000   0.2809
  11.800   1.9536   0.10259   0.09774  -0.1200  0.1069  0.7148  -4.9539   0.0000   0.2799
  12.000   1.9515   0.10462   0.09983  -0.1194  0.1045  0.7154  -4.9986   0.0000   0.2791
  12.200   1.9482   0.10686   0.10212  -0.1189  0.1022  0.7160  -5.0390   0.0000   0.2784
  12.400   1.9432   0.10937   0.10468  -0.1187  0.1000  0.7165  -5.0734   0.0000   0.2778
  12.600   1.9412   0.11154   0.10692  -0.1185  0.0978  0.7172  -5.1215   0.0000   0.2772
  12.800   1.9378   0.11394   0.10938  -0.1186  0.0954  0.7179  -5.1652   0.0000   0.2767
  13.000   1.9327   0.11661   0.11210  -0.1189  0.0930  0.7187  -5.2024   0.0000   0.2764
  13.200   1.9278   0.11932   0.11487  -0.1194  0.0909  0.7195  -5.2390   0.0000   0.2762
  13.400   1.9252   0.12178   0.11740  -0.1199  0.0886  0.7205  -5.2837   0.0000   0.2759
  13.600   1.9208   0.12461   0.12029  -0.1208  0.0862  0.7217  -5.3207   0.0000   0.2758
  13.800   1.9152   0.12781   0.12354  -0.1221  0.0840  0.7230  -5.3516   0.0000   0.2760
  14.000   1.9155   0.13094   0.12674  -0.1240  0.0816  0.7254  -5.4032   0.0000   0.2762
  14.200   1.9207   0.13494   0.13079  -0.1273  0.0787  0.7289  -5.4704   0.0000   0.2770
  14.400   1.9116   0.13796   0.13387  -0.1285  0.0769  0.7292  -5.4860   0.0000   0.2772
  14.600   1.9043   0.14075   0.13673  -0.1297  0.0753  0.7295  -5.5079   0.0000   0.2774
  14.800   1.8974   0.14353   0.13957  -0.1310  0.0736  0.7298  -5.5300   0.0000   0.2776
  15.000   1.8892   0.14651   0.14262  -0.1325  0.0719  0.7301  -5.5458   0.0000   0.2780
  15.200   1.8801   0.14966   0.14583  -0.1343  0.0702  0.7304  -5.5562   0.0000   0.2786
  15.400   1.8724   0.15260   0.14883  -0.1360  0.0688  0.7307  -5.5717   0.0000   0.2790
  15.600   1.8660   0.15535   0.15164  -0.1376  0.0673  0.7310  -5.5920   0.0000   0.2794
  15.800   1.8586   0.15824   0.15460  -0.1394  0.0657  0.7314  -5.6068   0.0000   0.2800
  16.000   1.8506   0.16122   0.15764  -0.1414  0.0642  0.7318  -5.6178   0.0000   0.2806
  16.200   1.8415   0.16441   0.16088  -0.1436  0.0629  0.7322  -5.6220   0.0000   0.2814
  16.400   1.8363   0.16697   0.16350  -0.1453  0.0615  0.7327  -5.6440   0.0000   0.2818
  16.600   1.8303   0.16969   0.16628  -0.1473  0.0600  0.7332  -5.6610   0.0000   0.2824
  16.800   1.8229   0.17267   0.16931  -0.1496  0.0586  0.7338  -5.6700   0.0000   0.2832
  17.000   1.8155   0.17569   0.17236  -0.1520  0.0572  0.7343  -5.6776   0.0000   0.2841
  17.200   1.8111   0.17827   0.17501  -0.1540  0.0559  0.7349  -5.6990   0.0000   0.2846
  17.400   1.8071   0.18083   0.17762  -0.1560  0.0544  0.7356  -5.7216   0.0000   0.2852
  17.600   1.8015   0.18373   0.18056  -0.1586  0.0529  0.7363  -5.7341   0.0000   0.2861
  17.800   1.7955   0.18672   0.18358  -0.1612  0.0515  0.7370  -5.7442   0.0000   0.2871
  18.000   1.7935   0.18911   0.18602  -0.1634  0.0502  0.7378  -5.7779   0.0000   0.2876
  18.200   1.7900   0.19183   0.18879  -0.1659  0.0488  0.7387  -5.8016   0.0000   0.2883
  18.400   1.7868   0.19458   0.19157  -0.1685  0.0475  0.7397  -5.8258   0.0000   0.2892
  18.600   1.7830   0.19757   0.19460  -0.1716  0.0463  0.7408  -5.8445   0.0000   0.2902
  18.800   1.7844   0.20008   0.19716  -0.1742  0.0450  0.7424  -5.8899   0.0000   0.2908
  19.000   1.7930   0.20391   0.20102  -0.1793  0.0432  0.7465  -5.9585   0.0000   0.2922
  19.200   1.7869   0.20651   0.20365  -0.1818  0.0422  0.7468  -5.9683   0.0000   0.2931
  19.400   1.7840   0.20852   0.20570  -0.1836  0.0412  0.7471  -5.9983   0.0000   0.2935
  19.600   1.7810   0.21057   0.20779  -0.1854  0.0402  0.7474  -6.0261   0.0000   0.2939
  19.800   1.7769   0.21284   0.21010  -0.1876  0.0392  0.7478  -6.0461   0.0000   0.2946
  20.000   1.7732   0.21505   0.21234  -0.1898  0.0382  0.7481  -6.0681   0.0000   0.2952
  20.200   1.7694   0.21733   0.21464  -0.1921  0.0374  0.7485  -6.0877   0.0000   0.2959
  20.400   1.7673   0.21933   0.21669  -0.1941  0.0365  0.7488  -6.1177   0.0000   0.2963
  20.600   1.7654   0.22130   0.21870  -0.1961  0.0356  0.7492  -6.1487   0.0000   0.2967
  20.800   1.7630   0.22338   0.22080  -0.1983  0.0347  0.7497  -6.1752   0.0000   0.2972
  21.000   1.7591   0.22577   0.22322  -0.2009  0.0339  0.7501  -6.1894   0.0000   0.2981
  21.200   1.7578   0.22767   0.22516  -0.2029  0.0332  0.7506  -6.2221   0.0000   0.2985
  21.400   1.7572   0.22944   0.22696  -0.2048  0.0324  0.7511  -6.2598   0.0000   0.2987
  21.600   1.7556   0.23144   0.22900  -0.2070  0.0317  0.7516  -6.2881   0.0000   0.2992
  21.800   1.7534   0.23356   0.23115  -0.2094  0.0309  0.7522  -6.3116   0.0000   0.2999
  22.000   1.7516   0.23563   0.23324  -0.2118  0.0302  0.7528  -6.3370   0.0000   0.3005
  22.200   1.7513   0.23742   0.23506  -0.2139  0.0296  0.7535  -6.3734   0.0000   0.3008
  22.400   1.7503   0.23937   0.23706  -0.2162  0.0289  0.7543  -6.4026   0.0000   0.3013
  22.600   1.7493   0.24133   0.23905  -0.2186  0.0281  0.7552  -6.4320   0.0000   0.3018
  22.800   1.7485   0.24333   0.24108  -0.2211  0.0274  0.7562  -6.4612   0.0000   0.3023
  23.000   1.7474   0.24551   0.24327  -0.2238  0.0267  0.7574  -6.4853   0.0000   0.3031
  23.200   1.7482   0.24754   0.24535  -0.2265  0.0261  0.7587  -6.5209   0.0000   0.3036
  23.400   1.7507   0.24970   0.24754  -0.2295  0.0253  0.7605  -6.5645   0.0000   0.3041
  23.600   1.7578   0.25253   0.25040  -0.2338  0.0245  0.7634  -6.6244   0.0000   0.3050
  23.800   1.7554   0.25442   0.25231  -0.2362  0.0240  0.7637  -6.6447   0.0000   0.3056
  24.000   1.7532   0.25626   0.25416  -0.2385  0.0235  0.7640  -6.6682   0.0000   0.3061
  24.200   1.7527   0.25774   0.25568  -0.2403  0.0230  0.7643  -6.7070   0.0000   0.3063
  24.400   1.7521   0.25923   0.25722  -0.2422  0.0225  0.7646  -6.7445   0.0000   0.3064
  24.600   1.7507   0.26090   0.25892  -0.2444  0.0220  0.7649  -6.7734   0.0000   0.3068
  24.800   1.7488   0.26267   0.26072  -0.2467  0.0215  0.7652  -6.7973   0.0000   0.3073
  25.000   1.7474   0.26434   0.26240  -0.2489  0.0211  0.7656  -6.8253   0.0000   0.3077


