xflr5 v6.47

 Calculated polar for: NACA24018_theta30_Ku4.5_Kl0.5_d0.07_delta1.57

 1 1 Reynolds number fixed          Mach number fixed         

 xtrf =   1.000 (top)        1.000 (bottom)
 Mach =   0.000     Re =     2.200 e 6     Ncrit =   5.000

  alpha     CL        CD       CDp       Cm    Top Xtr Bot Xtr   Cpmin    Chinge    XCp    
 ------- -------- --------- --------- -------- ------- ------- -------- --------- ---------
 -15.000  -1.1213   0.02256   0.01775  -0.0779  0.9796  0.0232  -7.1454   0.0000   0.1578
 -14.800  -1.1026   0.02204   0.01722  -0.0782  0.9783  0.0235  -7.0011   0.0000   0.1566
 -14.600  -1.0824   0.02159   0.01677  -0.0788  0.9776  0.0238  -6.8537   0.0000   0.1550
 -14.400  -1.0603   0.02122   0.01639  -0.0796  0.9771  0.0241  -6.7006   0.0000   0.1529
 -14.200  -1.0498   0.02049   0.01564  -0.0782  0.9737  0.0244  -6.5897   0.0000   0.1539
 -14.000  -1.0306   0.02004   0.01518  -0.0784  0.9727  0.0247  -6.4484   0.0000   0.1526
 -13.800  -1.0100   0.01964   0.01477  -0.0787  0.9720  0.0250  -6.3034   0.0000   0.1509
 -13.600  -0.9884   0.01928   0.01440  -0.0793  0.9715  0.0252  -6.1564   0.0000   0.1489
 -13.400  -0.9778   0.01876   0.01387  -0.0776  0.9692  0.0254  -6.0478   0.0000   0.1500
 -13.200  -0.9629   0.01832   0.01340  -0.0768  0.9675  0.0256  -5.9255   0.0000   0.1499
 -13.000  -0.9447   0.01788   0.01296  -0.0766  0.9664  0.0261  -5.7936   0.0000   0.1488
 -12.800  -0.9248   0.01748   0.01256  -0.0767  0.9657  0.0265  -5.6572   0.0000   0.1471
 -12.600  -0.9043   0.01711   0.01219  -0.0769  0.9652  0.0270  -5.5193   0.0000   0.1452
 -12.400  -0.8835   0.01675   0.01183  -0.0771  0.9647  0.0275  -5.3819   0.0000   0.1432
 -12.000  -0.9051   0.01575   0.01079  -0.0651  0.9435  0.0279  -5.3118   0.0000   0.1597
 -11.800  -0.8946   0.01543   0.01046  -0.0632  0.9375  0.0282  -5.2087   0.0000   0.1613
 -11.600  -0.8793   0.01508   0.01010  -0.0621  0.9343  0.0286  -5.0909   0.0000   0.1615
 -11.400  -0.8628   0.01474   0.00975  -0.0612  0.9310  0.0289  -4.9738   0.0000   0.1614
 -11.200  -0.8427   0.01441   0.00941  -0.0610  0.9268  0.0292  -4.8480   0.0000   0.1601
 -11.000  -0.8190   0.01405   0.00904  -0.0615  0.9236  0.0296  -4.7132   0.0000   0.1576
 -10.800  -0.7940   0.01366   0.00865  -0.0623  0.9194  0.0304  -4.5761   0.0000   0.1544
 -10.600  -0.7645   0.01323   0.00822  -0.0639  0.9146  0.0311  -4.4319   0.0000   0.1492
 -10.400  -0.7324   0.01282   0.00780  -0.0661  0.9090  0.0319  -4.2836   0.0000   0.1426
 -10.200  -0.6974   0.01242   0.00738  -0.0688  0.9001  0.0327  -4.1294   0.0000   0.1341
 -10.000  -0.6549   0.01199   0.00691  -0.0730  0.8877  0.0334  -3.9577   0.0000   0.1210
  -9.800  -0.6221   0.01169   0.00651  -0.0752  0.8606  0.0340  -3.8143   0.0000   0.1113
  -9.600  -0.6044   0.01152   0.00623  -0.0745  0.8287  0.0348  -3.7113   0.0000   0.1092
  -9.200  -0.5740   0.01128   0.00579  -0.0719  0.7718  0.0365  -3.5205   0.0000   0.1075
  -9.000  -0.5568   0.01116   0.00561  -0.0709  0.7510  0.0373  -3.4214   0.0000   0.1053
  -8.800  -0.5383   0.01105   0.00543  -0.0703  0.7325  0.0380  -3.3200   0.0000   0.1022
  -8.600  -0.5191   0.01095   0.00527  -0.0697  0.7137  0.0385  -3.2179   0.0000   0.0985
  -8.400  -0.4996   0.01083   0.00509  -0.0693  0.6944  0.0396  -3.1167   0.0000   0.0941
  -8.200  -0.4794   0.01071   0.00492  -0.0689  0.6768  0.0407  -3.0147   0.0000   0.0890
  -8.000  -0.4588   0.01060   0.00477  -0.0686  0.6605  0.0418  -2.9128   0.0000   0.0830
  -7.800  -0.4380   0.01050   0.00463  -0.0684  0.6463  0.0428  -2.8115   0.0000   0.0764
  -7.600  -0.4170   0.01042   0.00450  -0.0682  0.6331  0.0437  -2.7110   0.0000   0.0689
  -7.400  -0.3961   0.01032   0.00436  -0.0679  0.6187  0.0451  -2.6127   0.0000   0.0607
  -7.200  -0.3750   0.01023   0.00424  -0.0677  0.6034  0.0466  -2.5192   0.0000   0.0514
  -7.000  -0.3538   0.01015   0.00412  -0.0675  0.5881  0.0479  -2.4263   0.0000   0.0408
  -6.900  -0.3430   0.01012   0.00407  -0.0674  0.5806  0.0485  -2.3801   0.0000   0.0349
  -6.800  -0.3322   0.01009   0.00401  -0.0674  0.5740  0.0490  -2.3341   0.0000   0.0285
  -6.700  -0.3214   0.01005   0.00396  -0.0673  0.5671  0.0495  -2.2882   0.0000   0.0217
  -6.600  -0.3106   0.01002   0.00391  -0.0672  0.5603  0.0502  -2.2428   0.0000   0.0144
  -6.500  -0.2998   0.00998   0.00385  -0.0672  0.5531  0.0514  -2.1976   0.0000   0.0065
  -6.400  -0.2889   0.00995   0.00380  -0.0671  0.5458  0.0524  -2.1529   0.0000  -0.0020
  -6.300  -0.2780   0.00991   0.00375  -0.0671  0.5386  0.0534  -2.1102   0.0000  -0.0112
  -6.200  -0.2671   0.00989   0.00371  -0.0671  0.5313  0.0542  -2.0678   0.0000  -0.0213
  -6.100  -0.2561   0.00986   0.00366  -0.0670  0.5246  0.0550  -2.0255   0.0000  -0.0323
  -6.000  -0.2451   0.00984   0.00362  -0.0670  0.5179  0.0557  -1.9835   0.0000  -0.0443
  -5.900  -0.2341   0.00981   0.00358  -0.0670  0.5123  0.0563  -1.9417   0.0000  -0.0576
  -5.800  -0.2230   0.00979   0.00354  -0.0669  0.5058  0.0573  -1.9002   0.0000  -0.0721
  -5.700  -0.2120   0.00976   0.00349  -0.0669  0.4997  0.0586  -1.8590   0.0000  -0.0882
  -5.600  -0.2009   0.00973   0.00345  -0.0669  0.4930  0.0597  -1.8179   0.0000  -0.1062
  -5.500  -0.1898   0.00971   0.00342  -0.0669  0.4864  0.0609  -1.7771   0.0000  -0.1263
  -5.400  -0.1787   0.00969   0.00338  -0.0669  0.4796  0.0620  -1.7365   0.0000  -0.1491
  -5.300  -0.1676   0.00968   0.00335  -0.0669  0.4728  0.0630  -1.6974   0.0000  -0.1747
  -5.200  -0.1564   0.00966   0.00331  -0.0669  0.4669  0.0639  -1.6593   0.0000  -0.2043
  -5.100  -0.1452   0.00964   0.00328  -0.0669  0.4609  0.0658  -1.6216   0.0000  -0.2385
  -5.000  -0.1339   0.00961   0.00324  -0.0669  0.4560  0.0675  -1.5839   0.0000  -0.2788
  -4.900  -0.1227   0.00958   0.00321  -0.0669  0.4509  0.0690  -1.5464   0.0000  -0.3265
  -4.800  -0.1114   0.00957   0.00319  -0.0669  0.4453  0.0703  -1.5093   0.0000  -0.3837
  -4.700  -0.1002   0.00955   0.00316  -0.0669  0.4404  0.0715  -1.4723   0.0000  -0.4539
  -4.600  -0.0889   0.00954   0.00313  -0.0669  0.4348  0.0728  -1.4356   0.0000  -0.5421
  -4.400  -0.0662   0.00950   0.00308  -0.0670  0.4236  0.0774  -1.3629   0.0000  -0.8105
  -4.300  -0.0550   0.00949   0.00305  -0.0670  0.4173  0.0794  -1.3269   0.0000  -1.0268
  -4.200  -0.0437   0.00949   0.00303  -0.0670  0.4119  0.0810  -1.2912   0.0000  -1.3551
  -4.100  -0.0323   0.00947   0.00301  -0.0671  0.4065  0.0836  -1.2556   0.0000  -1.9205
  -4.000  -0.0209   0.00946   0.00299  -0.0671  0.4009  0.0865  -1.2212   0.0000  -3.0994
  -3.900  -0.0094   0.00944   0.00297  -0.0672  0.3966  0.0891  -1.1879   0.0000  -7.1555
  -3.800   0.0020   0.00943   0.00295  -0.0672  0.3916  0.0911  -1.1549   0.0000  35.6936
  -3.700   0.0134   0.00942   0.00293  -0.0673  0.3862  0.0943  -1.1222   0.0000   5.4661
  -3.600   0.0249   0.00940   0.00292  -0.0673  0.3817  0.0975  -1.0895   0.0000   3.0487
  -3.500   0.0364   0.00940   0.00290  -0.0674  0.3767  0.1001  -1.0571   0.0000   2.1652
  -3.400   0.0477   0.00940   0.00289  -0.0674  0.3716  0.1022  -1.0252   0.0000   1.7081
  -3.300   0.0593   0.00939   0.00288  -0.0675  0.3678  0.1058  -0.9935   0.0000   1.4225
  -3.200   0.0709   0.00937   0.00286  -0.0676  0.3638  0.1097  -0.9634   0.0000   1.2298
  -3.100   0.0825   0.00936   0.00285  -0.0676  0.3598  0.1132  -0.9336   0.0000   1.0923
  -3.000   0.0941   0.00935   0.00284  -0.0677  0.3560  0.1181  -0.9044   0.0000   0.9881
  -2.900   0.1059   0.00933   0.00283  -0.0679  0.3532  0.1234  -0.8764   0.0000   0.9060
  -2.800   0.1176   0.00931   0.00282  -0.0680  0.3501  0.1280  -0.8487   0.0000   0.8406
  -2.700   0.1295   0.00929   0.00281  -0.0681  0.3467  0.1343  -0.8210   0.0000   0.7868
  -2.600   0.1411   0.00929   0.00281  -0.0682  0.3433  0.1393  -0.7937   0.0000   0.7424
  -2.500   0.1531   0.00926   0.00280  -0.0684  0.3404  0.1465  -0.8019   0.0000   0.7042
  -2.400   0.1651   0.00924   0.00279  -0.0686  0.3377  0.1544  -0.8143   0.0000   0.6716
  -2.300   0.1774   0.00920   0.00278  -0.0688  0.3344  0.1655  -0.8268   0.0000   0.6432
  -2.200   0.1898   0.00917   0.00278  -0.0691  0.3308  0.1772  -0.8393   0.0000   0.6185
  -2.100   0.2022   0.00914   0.00277  -0.0694  0.3271  0.1902  -0.8524   0.0000   0.5967
  -1.900   0.2287   0.00902   0.00276  -0.0703  0.3218  0.2285  -0.8801   0.0000   0.5597
  -1.800   0.2435   0.00891   0.00274  -0.0712  0.3189  0.2613  -0.8951   0.0000   0.5440
  -1.700   0.2589   0.00881   0.00273  -0.0722  0.3160  0.2966  -0.9104   0.0000   0.5299
  -1.500   0.2878   0.00868   0.00274  -0.0737  0.3112  0.3448  -0.9401   0.0000   0.5062
  -1.400   0.3023   0.00863   0.00275  -0.0744  0.3089  0.3676  -0.9551   0.0000   0.4959
  -1.300   0.3170   0.00858   0.00276  -0.0752  0.3063  0.3887  -0.9702   0.0000   0.4866
  -1.200   0.3313   0.00855   0.00278  -0.0759  0.3035  0.4088  -0.9852   0.0000   0.4781
  -1.100   0.3453   0.00854   0.00280  -0.0765  0.3007  0.4255  -1.0002   0.0000   0.4703
  -1.000   0.3590   0.00853   0.00282  -0.0771  0.2983  0.4391  -1.0156   0.0000   0.4630
  -0.900   0.3726   0.00852   0.00284  -0.0776  0.2967  0.4504  -1.0308   0.0000   0.4563
  -0.800   0.3860   0.00852   0.00286  -0.0780  0.2949  0.4607  -1.0467   0.0000   0.4500
  -0.700   0.3993   0.00852   0.00289  -0.0785  0.2927  0.4716  -1.0625   0.0000   0.4441
  -0.600   0.4129   0.00853   0.00291  -0.0790  0.2904  0.4833  -1.0787   0.0000   0.4386
  -0.500   0.4263   0.00854   0.00294  -0.0794  0.2878  0.4930  -1.0948   0.0000   0.4334
  -0.400   0.4391   0.00856   0.00297  -0.0798  0.2853  0.5012  -1.1104   0.0000   0.4285
  -0.300   0.4528   0.00857   0.00299  -0.0803  0.2838  0.5114  -1.1268   0.0000   0.4240
  -0.200   0.4666   0.00857   0.00302  -0.0808  0.2825  0.5215  -1.1433   0.0000   0.4197
  -0.100   0.4804   0.00857   0.00305  -0.0813  0.2810  0.5324  -1.1599   0.0000   0.4156
   0.000   0.4941   0.00858   0.00308  -0.0819  0.2795  0.5433  -1.1765   0.0000   0.4118
   0.100   0.5082   0.00859   0.00312  -0.0825  0.2778  0.5536  -1.1933   0.0000   0.4082
   0.200   0.5217   0.00861   0.00315  -0.0829  0.2760  0.5624  -1.2098   0.0000   0.4048
   0.300   0.5351   0.00864   0.00319  -0.0834  0.2741  0.5713  -1.2263   0.0000   0.4015
   0.400   0.5485   0.00867   0.00322  -0.0838  0.2722  0.5788  -1.2428   0.0000   0.3983
   0.500   0.5614   0.00870   0.00326  -0.0842  0.2704  0.5852  -1.2590   0.0000   0.3953
   0.600   0.5740   0.00872   0.00329  -0.0844  0.2694  0.5898  -1.2749   0.0000   0.3923
   0.700   0.5870   0.00875   0.00332  -0.0848  0.2681  0.5944  -1.2913   0.0000   0.3895
   0.800   0.5993   0.00878   0.00336  -0.0850  0.2665  0.5983  -1.3072   0.0000   0.3867
   0.900   0.6113   0.00881   0.00339  -0.0851  0.2648  0.6017  -1.3230   0.0000   0.3840
   1.000   0.6234   0.00885   0.00342  -0.0853  0.2629  0.6048  -1.3395   0.0000   0.3814
   1.100   0.6360   0.00889   0.00346  -0.0856  0.2610  0.6083  -1.3565   0.0000   0.3790
   1.200   0.6482   0.00894   0.00350  -0.0858  0.2591  0.6120  -1.3732   0.0000   0.3766
   1.300   0.6602   0.00898   0.00354  -0.0859  0.2573  0.6157  -1.3898   0.0000   0.3743
   1.400   0.6724   0.00901   0.00358  -0.0861  0.2563  0.6191  -1.4066   0.0000   0.3721
   1.500   0.6853   0.00904   0.00362  -0.0864  0.2553  0.6231  -1.4240   0.0000   0.3700
   1.600   0.6977   0.00908   0.00365  -0.0867  0.2541  0.6272  -1.4412   0.0000   0.3680
   1.700   0.7098   0.00912   0.00369  -0.0868  0.2527  0.6308  -1.4580   0.0000   0.3660
   1.800   0.7218   0.00916   0.00373  -0.0870  0.2511  0.6340  -1.4748   0.0000   0.3640
   1.900   0.7344   0.00920   0.00378  -0.0872  0.2493  0.6375  -1.4922   0.0000   0.3622
   2.000   0.7466   0.00925   0.00382  -0.0874  0.2473  0.6413  -1.5097   0.0000   0.3604
   2.100   0.7585   0.00931   0.00387  -0.0876  0.2454  0.6449  -1.5274   0.0000   0.3586
   2.200   0.7702   0.00936   0.00392  -0.0877  0.2435  0.6482  -1.5450   0.0000   0.3568
   2.300   0.7831   0.00940   0.00396  -0.0880  0.2425  0.6520  -1.5637   0.0000   0.3553
   2.400   0.7956   0.00943   0.00401  -0.0883  0.2415  0.6560  -1.5822   0.0000   0.3537
   2.500   0.8077   0.00948   0.00406  -0.0884  0.2403  0.6597  -1.6003   0.0000   0.3521
   2.600   0.8195   0.00952   0.00410  -0.0885  0.2388  0.6629  -1.6182   0.0000   0.3505
   2.700   0.8323   0.00957   0.00415  -0.0889  0.2371  0.6666  -1.6370   0.0000   0.3492
   2.800   0.8446   0.00963   0.00421  -0.0891  0.2354  0.6706  -1.6559   0.0000   0.3477
   2.900   0.8565   0.00969   0.00426  -0.0892  0.2336  0.6744  -1.6749   0.0000   0.3463
   3.000   0.8680   0.00975   0.00432  -0.0893  0.2318  0.6777  -1.6936   0.0000   0.3449
   3.100   0.8807   0.00980   0.00438  -0.0896  0.2300  0.6815  -1.7135   0.0000   0.3436
   3.200   0.8933   0.00985   0.00443  -0.0899  0.2291  0.6856  -1.7333   0.0000   0.3424
   3.300   0.9054   0.00990   0.00448  -0.0900  0.2281  0.6895  -1.7528   0.0000   0.3411
   3.400   0.9172   0.00995   0.00454  -0.0902  0.2268  0.6929  -1.7730   0.0000   0.3398
   3.500   0.9300   0.01000   0.00459  -0.0905  0.2254  0.6966  -1.7942   0.0000   0.3387
   3.600   0.9422   0.01006   0.00466  -0.0907  0.2238  0.7003  -1.8150   0.0000   0.3375
   3.700   0.9539   0.01012   0.00472  -0.0908  0.2221  0.7038  -1.8352   0.0000   0.3363
   3.800   0.9652   0.01019   0.00478  -0.0908  0.2206  0.7068  -1.8552   0.0000   0.3351
   3.900   0.9774   0.01025   0.00484  -0.0910  0.2190  0.7100  -1.8761   0.0000   0.3340
   4.000   0.9895   0.01032   0.00491  -0.0912  0.2173  0.7135  -1.8970   0.0000   0.3330
   4.100   1.0015   0.01038   0.00497  -0.0914  0.2162  0.7171  -1.9177   0.0000   0.3319
   4.200   1.0132   0.01043   0.00503  -0.0915  0.2155  0.7204  -1.9383   0.0000   0.3308
   4.300   1.0251   0.01049   0.00509  -0.0916  0.2146  0.7233  -1.9592   0.0000   0.3298
   4.400   1.0376   0.01055   0.00516  -0.0919  0.2136  0.7267  -1.9807   0.0000   0.3288
   4.500   1.0496   0.01061   0.00523  -0.0921  0.2124  0.7303  -2.0019   0.0000   0.3279
   4.600   1.0612   0.01067   0.00529  -0.0921  0.2110  0.7338  -2.0226   0.0000   0.3268
   4.700   1.0724   0.01075   0.00536  -0.0921  0.2094  0.7367  -2.0429   0.0000   0.3258
   4.800   1.0843   0.01083   0.00544  -0.0923  0.2077  0.7397  -2.0641   0.0000   0.3249
   4.900   1.0961   0.01091   0.00553  -0.0924  0.2058  0.7431  -2.0851   0.0000   0.3240
   5.000   1.1075   0.01099   0.00560  -0.0925  0.2039  0.7465  -2.1067   0.0000   0.3230
   5.200   1.1305   0.01112   0.00574  -0.0926  0.2021  0.7528  -2.1508   0.0000   0.3212
   5.400   1.1545   0.01126   0.00590  -0.0930  0.1997  0.7595  -2.1962   0.0000   0.3195
   5.600   1.1766   0.01142   0.00606  -0.0930  0.1967  0.7655  -2.2397   0.0000   0.3177
   5.800   1.1988   0.01161   0.00624  -0.0930  0.1930  0.7708  -2.2842   0.0000   0.3160
   6.000   1.2209   0.01178   0.00641  -0.0930  0.1901  0.7764  -2.3304   0.0000   0.3143
   6.400   1.2648   0.01210   0.00676  -0.0929  0.1855  0.7868  -2.4279   0.0000   0.3110
   6.600   1.2856   0.01230   0.00695  -0.0927  0.1826  0.7923  -2.4758   0.0000   0.3094
   6.800   1.3052   0.01252   0.00716  -0.0922  0.1789  0.7966  -2.5225   0.0000   0.3076
   7.000   1.3262   0.01271   0.00736  -0.0920  0.1766  0.8014  -2.5714   0.0000   0.3061
   7.200   1.3465   0.01290   0.00756  -0.0916  0.1739  0.8065  -2.6231   0.0000   0.3045
   7.400   1.3659   0.01312   0.00778  -0.0912  0.1707  0.8107  -2.6754   0.0000   0.3029
   7.600   1.3847   0.01337   0.00802  -0.0906  0.1673  0.8149  -2.7272   0.0000   0.3012
   7.800   1.4042   0.01357   0.00824  -0.0901  0.1652  0.8190  -2.7801   0.0000   0.2997
   8.000   1.4238   0.01377   0.00845  -0.0897  0.1633  0.8229  -2.8336   0.0000   0.2982
   8.200   1.4426   0.01401   0.00869  -0.0891  0.1602  0.8265  -2.8862   0.0000   0.2967
   8.400   1.4595   0.01430   0.00898  -0.0882  0.1562  0.8306  -2.9395   0.0000   0.2950
   8.600   1.4771   0.01457   0.00924  -0.0874  0.1532  0.8345  -2.9964   0.0000   0.2935
   8.800   1.4954   0.01480   0.00949  -0.0868  0.1514  0.8378  -3.0548   0.0000   0.2920
   9.000   1.5127   0.01508   0.00977  -0.0860  0.1485  0.8405  -3.1119   0.0000   0.2905
   9.200   1.5268   0.01541   0.01010  -0.0846  0.1446  0.8436  -3.1695   0.0000   0.2887
   9.400   1.5421   0.01573   0.01041  -0.0835  0.1411  0.8466  -3.2295   0.0000   0.2871
   9.600   1.5589   0.01601   0.01071  -0.0826  0.1387  0.8497  -3.2923   0.0000   0.2856
   9.800   1.5753   0.01635   0.01104  -0.0818  0.1355  0.8525  -3.3549   0.0000   0.2842
  10.000   1.5895   0.01678   0.01145  -0.0806  0.1315  0.8550  -3.4140   0.0000   0.2826
  10.200   1.6023   0.01710   0.01179  -0.0790  0.1291  0.8576  -3.4751   0.0000   0.2809
  10.400   1.6154   0.01745   0.01216  -0.0776  0.1262  0.8603  -3.5413   0.0000   0.2793
  10.600   1.6279   0.01790   0.01260  -0.0761  0.1225  0.8630  -3.6066   0.0000   0.2777
  10.800   1.6410   0.01836   0.01306  -0.0748  0.1190  0.8654  -3.6732   0.0000   0.2761
  11.000   1.6565   0.01877   0.01347  -0.0740  0.1168  0.8675  -3.7478   0.0000   0.2748
  11.200   1.6702   0.01924   0.01394  -0.0728  0.1139  0.8691  -3.8224   0.0000   0.2734
  11.400   1.6773   0.01979   0.01450  -0.0706  0.1103  0.8712  -3.8832   0.0000   0.2715
  11.600   1.6864   0.02029   0.01501  -0.0687  0.1076  0.8732  -3.9486   0.0000   0.2698
  11.800   1.6964   0.02080   0.01554  -0.0670  0.1049  0.8754  -4.0189   0.0000   0.2682
  12.000   1.7055   0.02145   0.01619  -0.0653  0.1016  0.8775  -4.0876   0.0000   0.2666
  12.200   1.7160   0.02214   0.01688  -0.0640  0.0983  0.8795  -4.1595   0.0000   0.2652
  12.400   1.7288   0.02277   0.01752  -0.0630  0.0961  0.8811  -4.2375   0.0000   0.2640
  12.600   1.7401   0.02353   0.01828  -0.0620  0.0930  0.8824  -4.3124   0.0000   0.2628
  12.800   1.7438   0.02436   0.01911  -0.0597  0.0898  0.8841  -4.3694   0.0000   0.2610
  13.000   1.7484   0.02507   0.01986  -0.0575  0.0878  0.8858  -4.4311   0.0000   0.2592
  13.200   1.7539   0.02582   0.02063  -0.0556  0.0860  0.8875  -4.4980   0.0000   0.2576
  13.400   1.7596   0.02670   0.02153  -0.0539  0.0836  0.8890  -4.5651   0.0000   0.2561
  13.600   1.7642   0.02779   0.02263  -0.0523  0.0806  0.8904  -4.6304   0.0000   0.2547
  13.800   1.7715   0.02879   0.02364  -0.0511  0.0783  0.8917  -4.7050   0.0000   0.2535
  14.000   1.7785   0.02988   0.02476  -0.0500  0.0759  0.8929  -4.7788   0.0000   0.2523
  14.200   1.7833   0.03121   0.02610  -0.0489  0.0730  0.8941  -4.8465   0.0000   0.2512
  14.400   1.7891   0.03256   0.02746  -0.0480  0.0705  0.8951  -4.9171   0.0000   0.2502
  14.600   1.7974   0.03381   0.02873  -0.0475  0.0688  0.8960  -4.9951   0.0000   0.2493
  14.800   1.7980   0.03511   0.03007  -0.0458  0.0672  0.8971  -5.0518   0.0000   0.2479
  15.000   1.7952   0.03660   0.03160  -0.0439  0.0654  0.8983  -5.0984   0.0000   0.2464
  15.200   1.7918   0.03826   0.03329  -0.0422  0.0634  0.8993  -5.1425   0.0000   0.2451
  15.400   1.7921   0.03979   0.03485  -0.0410  0.0620  0.9003  -5.1975   0.0000   0.2439
  15.600   1.7926   0.04145   0.03656  -0.0400  0.0605  0.9012  -5.2528   0.0000   0.2429
  15.800   1.7914   0.04336   0.03851  -0.0392  0.0588  0.9020  -5.3027   0.0000   0.2419
  16.000   1.7882   0.04555   0.04073  -0.0385  0.0570  0.9028  -5.3458   0.0000   0.2411
  16.200   1.7854   0.04779   0.04301  -0.0380  0.0554  0.9036  -5.3898   0.0000   0.2403
  16.400   1.7852   0.04989   0.04516  -0.0378  0.0544  0.9044  -5.4414   0.0000   0.2396
  16.600   1.7837   0.05222   0.04754  -0.0377  0.0532  0.9051  -5.4918   0.0000   0.2391
  16.800   1.7804   0.05483   0.05020  -0.0378  0.0520  0.9057  -5.5369   0.0000   0.2386
  17.000   1.7754   0.05772   0.05314  -0.0380  0.0507  0.9062  -5.5751   0.0000   0.2383
  17.200   1.7684   0.06091   0.05639  -0.0385  0.0494  0.9067  -5.6056   0.0000   0.2380
  17.400   1.7632   0.06398   0.05951  -0.0391  0.0484  0.9071  -5.6421   0.0000   0.2379
  17.600   1.7583   0.06710   0.06270  -0.0398  0.0475  0.9076  -5.6786   0.0000   0.2378
  17.800   1.7513   0.07052   0.06618  -0.0407  0.0465  0.9079  -5.7071   0.0000   0.2378
  18.000   1.7411   0.07440   0.07012  -0.0418  0.0454  0.9082  -5.7227   0.0000   0.2380
  18.200   1.7283   0.07860   0.07440  -0.0430  0.0443  0.9084  -5.7278   0.0000   0.2383
  18.400   1.7143   0.08304   0.07890  -0.0445  0.0432  0.9085  -5.7267   0.0000   0.2387
  18.600   1.7017   0.08737   0.08331  -0.0460  0.0424  0.9087  -5.7296   0.0000   0.2392
  18.800   1.6905   0.09158   0.08760  -0.0477  0.0417  0.9088  -5.7366   0.0000   0.2397
  19.000   1.6783   0.09592   0.09201  -0.0494  0.0410  0.9090  -5.7412   0.0000   0.2404
  19.200   1.6644   0.10031   0.09648  -0.0511  0.0403  0.9092  -5.7380   0.0000   0.2410
  19.400   1.6494   0.10475   0.10099  -0.0528  0.0396  0.9094  -5.7287   0.0000   0.2417
  19.600   1.6340   0.10928   0.10559  -0.0546  0.0389  0.9097  -5.7158   0.0000   0.2425
  19.800   1.6185   0.11384   0.11021  -0.0566  0.0382  0.9099  -5.7008   0.0000   0.2434
  20.000   1.6039   0.11829   0.11474  -0.0586  0.0375  0.9101  -5.6874   0.0000   0.2444
  20.200   1.5920   0.12235   0.11886  -0.0605  0.0370  0.9103  -5.6849   0.0000   0.2453
  20.400   1.5815   0.12625   0.12283  -0.0625  0.0365  0.9105  -5.6867   0.0000   0.2461
  20.600   1.5736   0.12976   0.12639  -0.0643  0.0360  0.9108  -5.6993   0.0000   0.2469
  20.800   1.5635   0.13367   0.13036  -0.0664  0.0354  0.9110  -5.7000   0.0000   0.2479
  21.000   1.5532   0.13761   0.13436  -0.0687  0.0347  0.9113  -5.6977   0.0000   0.2490
  21.200   1.5450   0.14114   0.13793  -0.0707  0.0339  0.9116  -5.7052   0.0000   0.2499
  21.400   1.5337   0.14519   0.14204  -0.0731  0.0332  0.9118  -5.6951   0.0000   0.2512
  21.600   1.5260   0.14864   0.14552  -0.0752  0.0324  0.9122  -5.7022   0.0000   0.2522
  21.800   1.5191   0.15198   0.14892  -0.0773  0.0319  0.9125  -5.7121   0.0000   0.2531
  22.000   1.5154   0.15484   0.15181  -0.0791  0.0313  0.9129  -5.7370   0.0000   0.2538
  22.200   1.5076   0.15844   0.15546  -0.0815  0.0307  0.9132  -5.7391   0.0000   0.2550
  22.400   1.5040   0.16138   0.15843  -0.0836  0.0300  0.9135  -5.7619   0.0000   0.2559
  22.600   1.4961   0.16509   0.16218  -0.0863  0.0294  0.9138  -5.7595   0.0000   0.2573
  22.800   1.4922   0.16813   0.16525  -0.0885  0.0286  0.9141  -5.7785   0.0000   0.2583
  23.000   1.4865   0.17151   0.16868  -0.0911  0.0280  0.9144  -5.7854   0.0000   0.2597
  23.200   1.4847   0.17424   0.17144  -0.0932  0.0276  0.9147  -5.8137   0.0000   0.2605
  23.400   1.4839   0.17682   0.17405  -0.0953  0.0271  0.9150  -5.8485   0.0000   0.2613
  23.600   1.4792   0.18009   0.17736  -0.0980  0.0266  0.9154  -5.8597   0.0000   0.2626
  23.800   1.4774   0.18286   0.18016  -0.1003  0.0260  0.9157  -5.8871   0.0000   0.2636
  24.000   1.4761   0.18556   0.18289  -0.1026  0.0254  0.9161  -5.9171   0.0000   0.2645
  24.200   1.4705   0.18909   0.18647  -0.1056  0.0248  0.9165  -5.9179   0.0000   0.2662
  24.400   1.4695   0.19185   0.18925  -0.1081  0.0242  0.9169  -5.9465   0.0000   0.2672
  24.600   1.4709   0.19422   0.19165  -0.1103  0.0239  0.9173  -5.9896   0.0000   0.2679
  24.800   1.4679   0.19744   0.19491  -0.1133  0.0235  0.9177  -6.0023   0.0000   0.2694
  25.000   1.4689   0.19996   0.19745  -0.1157  0.0231  0.9180  -6.0408   0.0000   0.2703


