xflr5 v6.47

 Calculated polar for: NACA24018_theta30_Ku4.5_Kl0.5_d0.28_delta9.02

 1 1 Reynolds number fixed          Mach number fixed         

 xtrf =   1.000 (top)        1.000 (bottom)
 Mach =   0.000     Re =     0.800 e 6     Ncrit =   5.000

  alpha     CL        CD       CDp       Cm    Top Xtr Bot Xtr   Cpmin    Chinge    XCp    
 ------- -------- --------- --------- -------- ------- ------- -------- --------- ---------
 -14.800  -0.6058   0.04587   0.04127  -0.1097  0.8475  0.0410  -4.9199   0.0000   0.0401
 -14.600  -0.5775   0.04559   0.04097  -0.1116  0.8459  0.0416  -4.7712   0.0000   0.0274
 -14.400  -0.5467   0.04538   0.04076  -0.1141  0.8450  0.0423  -4.6163   0.0000   0.0114
 -14.200  -0.5161   0.04525   0.04064  -0.1163  0.8443  0.0432  -4.4634   0.0000  -0.0061
 -14.000  -0.4856   0.04518   0.04056  -0.1184  0.8437  0.0441  -4.3175   0.0000  -0.0255
 -13.800  -0.4548   0.04516   0.04052  -0.1204  0.8432  0.0451  -4.1727   0.0000  -0.0475
 -13.600  -0.4233   0.04517   0.04051  -0.1225  0.8428  0.0459  -4.0280   0.0000  -0.0734
 -13.200  -0.3658   0.04493   0.04031  -0.1262  0.8372  0.0481  -3.7585   0.0000  -0.1316
 -13.000  -0.3352   0.04495   0.04032  -0.1281  0.8361  0.0493  -3.6206   0.0000  -0.1708
 -12.800  -0.3034   0.04496   0.04031  -0.1301  0.8350  0.0504  -3.4814   0.0000  -0.2201
 -12.600  -0.2685   0.04496   0.04032  -0.1326  0.8342  0.0516  -3.3359   0.0000  -0.2891
 -12.400  -0.2326   0.04496   0.04033  -0.1353  0.8335  0.0530  -3.1893   0.0000  -0.3816
 -12.200  -0.1963   0.04495   0.04032  -0.1378  0.8329  0.0545  -3.0440   0.0000  -0.5094
 -11.800  -0.1408   0.04514   0.04053  -0.1407  0.8280  0.0572  -2.8040   0.0000  -0.8231
 -11.600  -0.1083   0.04521   0.04061  -0.1427  0.8264  0.0592  -2.6741   0.0000  -1.1600
 -11.400  -0.0742   0.04519   0.04059  -0.1449  0.8252  0.0611  -2.5424   0.0000  -1.8320
 -11.200  -0.0351   0.04507   0.04048  -0.1478  0.8241  0.0633  -2.4123   0.0000  -4.2244
 -11.000   0.0055   0.04484   0.04026  -0.1508  0.8232  0.0658  -2.2823   0.0000  29.3850
 -10.800   0.0486   0.04451   0.03993  -0.1542  0.8225  0.0685  -2.1496   0.0000   3.5999
  -8.400   0.3507   0.05088   0.04667  -0.1646  0.7571  0.1138  -1.1348   0.0000   0.7321
  -8.200   0.3935   0.05070   0.04652  -0.1678  0.7497  0.1231  -1.0361   0.0000   0.6868
  -8.000   0.4452   0.05011   0.04594  -0.1722  0.7428  0.1364  -0.9313   0.0000   0.6452
  -7.800   0.5153   0.04868   0.04450  -0.1794  0.7309  0.1578  -0.8306   0.0000   0.6047
  -7.600   0.6208   0.04613   0.04185  -0.1922  0.7028  0.2048  -0.9169   0.0000   0.5646
  -7.400   0.6777   0.04656   0.04198  -0.1982  0.6306  0.2545  -0.9677   0.0000   0.5465
  -7.200   0.7321   0.04921   0.04455  -0.2044  0.5762  0.3317  -1.0161   0.0000   0.5323
  -7.000   0.7713   0.05084   0.04610  -0.2076  0.5420  0.3719  -1.0542   0.0000   0.5216
  -6.800   0.8025   0.05197   0.04713  -0.2093  0.5141  0.3952  -1.0870   0.0000   0.5126
  -6.600   0.8327   0.05299   0.04805  -0.2108  0.4884  0.4144  -1.1194   0.0000   0.5044
  -6.400   0.8606   0.05382   0.04879  -0.2119  0.4677  0.4279  -1.1516   0.0000   0.4969
  -6.200   0.8877   0.05457   0.04946  -0.2127  0.4504  0.4392  -1.1834   0.0000   0.4899
  -6.000   0.9138   0.05524   0.05006  -0.2134  0.4351  0.4504  -1.2146   0.0000   0.4834
  -5.800   0.9404   0.05594   0.05070  -0.2142  0.4204  0.4600  -1.2471   0.0000   0.4772
  -5.600   0.9645   0.05652   0.05119  -0.2145  0.4063  0.4679  -1.2786   0.0000   0.4714
  -5.400   0.9897   0.05714   0.05176  -0.2150  0.3927  0.4766  -1.3111   0.0000   0.4659
  -5.200   1.0181   0.05792   0.05249  -0.2161  0.3815  0.4899  -1.3465   0.0000   0.4604
  -5.000   1.0452   0.05865   0.05317  -0.2169  0.3710  0.5016  -1.3812   0.0000   0.4553
  -4.800   1.0693   0.05920   0.05367  -0.2172  0.3620  0.5067  -1.4149   0.0000   0.4505
  -4.400   1.1103   0.05995   0.05435  -0.2165  0.3463  0.5143  -1.4763   0.0000   0.4418
  -4.200   1.1318   0.06038   0.05475  -0.2164  0.3393  0.5180  -1.5082   0.0000   0.4376
  -4.000   1.1541   0.06087   0.05518  -0.2164  0.3332  0.5218  -1.5410   0.0000   0.4336
  -3.800   1.1759   0.06131   0.05560  -0.2163  0.3273  0.5251  -1.5735   0.0000   0.4297
  -3.600   1.1947   0.06162   0.05588  -0.2156  0.3211  0.5282  -1.6033   0.0000   0.4259
  -3.400   1.2141   0.06197   0.05621  -0.2151  0.3160  0.5313  -1.6351   0.0000   0.4223
  -3.200   1.2346   0.06236   0.05659  -0.2148  0.3116  0.5347  -1.6683   0.0000   0.4188
  -3.000   1.2560   0.06282   0.05703  -0.2146  0.3070  0.5384  -1.7030   0.0000   0.4154
  -2.800   1.2779   0.06334   0.05750  -0.2145  0.3021  0.5419  -1.7396   0.0000   0.4120
  -2.600   1.2973   0.06370   0.05785  -0.2140  0.2982  0.5448  -1.7737   0.0000   0.4088
  -2.400   1.3153   0.06399   0.05814  -0.2133  0.2943  0.5475  -1.8067   0.0000   0.4057
  -2.200   1.3339   0.06432   0.05847  -0.2126  0.2900  0.5505  -1.8406   0.0000   0.4026
  -2.000   1.3531   0.06472   0.05884  -0.2121  0.2857  0.5536  -1.8767   0.0000   0.3997
  -1.800   1.3736   0.06519   0.05929  -0.2118  0.2819  0.5571  -1.9143   0.0000   0.3968
  -1.600   1.3956   0.06572   0.05982  -0.2117  0.2783  0.5605  -1.9538   0.0000   0.3940
  -1.400   1.4142   0.06609   0.06018  -0.2110  0.2747  0.5633  -1.9898   0.0000   0.3912
  -1.200   1.4306   0.06635   0.06044  -0.2100  0.2713  0.5659  -2.0236   0.0000   0.3885
  -1.000   1.4476   0.06668   0.06075  -0.2092  0.2676  0.5685  -2.0581   0.0000   0.3859
  -0.800   1.4658   0.06704   0.06112  -0.2084  0.2646  0.5714  -2.0941   0.0000   0.3833
  -0.600   1.4850   0.06747   0.06155  -0.2079  0.2614  0.5744  -2.1315   0.0000   0.3808
  -0.400   1.5055   0.06800   0.06207  -0.2076  0.2579  0.5778  -2.1733   0.0000   0.3783
  -0.200   1.5262   0.06857   0.06263  -0.2073  0.2546  0.5808  -2.2164   0.0000   0.3760
   0.000   1.5406   0.06881   0.06286  -0.2060  0.2515  0.5832  -2.2519   0.0000   0.3735
   0.200   1.5559   0.06908   0.06315  -0.2049  0.2489  0.5855  -2.2888   0.0000   0.3712
   0.400   1.5721   0.06941   0.06350  -0.2039  0.2460  0.5880  -2.3269   0.0000   0.3689
   0.600   1.5889   0.06983   0.06392  -0.2030  0.2426  0.5906  -2.3659   0.0000   0.3666
   0.800   1.6065   0.07035   0.06443  -0.2022  0.2390  0.5936  -2.4062   0.0000   0.3644
   1.000   1.6254   0.07099   0.06505  -0.2017  0.2354  0.5968  -2.4489   0.0000   0.3623
   1.200   1.6452   0.07162   0.06569  -0.2013  0.2327  0.5996  -2.4956   0.0000   0.3602
   1.400   1.6582   0.07186   0.06595  -0.1998  0.2304  0.6016  -2.5338   0.0000   0.3581
   1.600   1.6716   0.07215   0.06626  -0.1984  0.2277  0.6035  -2.5729   0.0000   0.3559
   1.800   1.6855   0.07249   0.06661  -0.1971  0.2247  0.6056  -2.6126   0.0000   0.3538
   2.000   1.6997   0.07291   0.06702  -0.1958  0.2214  0.6079  -2.6530   0.0000   0.3518
   2.200   1.7152   0.07339   0.06750  -0.1948  0.2185  0.6106  -2.6964   0.0000   0.3498
   2.400   1.7330   0.07395   0.06809  -0.1941  0.2157  0.6136  -2.7442   0.0000   0.3479
   2.600   1.7521   0.07465   0.06879  -0.1936  0.2125  0.6164  -2.7941   0.0000   0.3461
   2.800   1.7689   0.07526   0.06940  -0.1928  0.2094  0.6186  -2.8424   0.0000   0.3442
   3.000   1.7795   0.07555   0.06969  -0.1911  0.2066  0.6201  -2.8836   0.0000   0.3422
   3.200   1.7906   0.07585   0.07001  -0.1894  0.2041  0.6219  -2.9257   0.0000   0.3403
   3.400   1.8026   0.07615   0.07034  -0.1878  0.2018  0.6237  -2.9696   0.0000   0.3384
   3.600   1.8149   0.07655   0.07077  -0.1863  0.1990  0.6257  -3.0142   0.0000   0.3365
   3.800   1.8274   0.07710   0.07133  -0.1849  0.1960  0.6277  -3.0613   0.0000   0.3347
   4.000   1.8405   0.07780   0.07202  -0.1837  0.1927  0.6299  -3.1116   0.0000   0.3329
   4.200   1.8551   0.07854   0.07278  -0.1826  0.1898  0.6321  -3.1653   0.0000   0.3312
   4.400   1.8727   0.07937   0.07362  -0.1820  0.1871  0.6347  -3.2259   0.0000   0.3295
   4.600   1.8892   0.08020   0.07447  -0.1813  0.1838  0.6371  -3.2862   0.0000   0.3279
   4.800   1.8972   0.08058   0.07486  -0.1793  0.1808  0.6384  -3.3339   0.0000   0.3261
   5.000   1.9050   0.08103   0.07532  -0.1773  0.1777  0.6397  -3.3815   0.0000   0.3243
   5.200   1.9143   0.08143   0.07575  -0.1755  0.1754  0.6410  -3.4320   0.0000   0.3225
   5.400   1.9239   0.08189   0.07624  -0.1738  0.1727  0.6423  -3.4849   0.0000   0.3208
   5.600   1.9329   0.08251   0.07688  -0.1720  0.1698  0.6436  -3.5434   0.0000   0.3191
   5.800   1.9416   0.08328   0.07766  -0.1703  0.1666  0.6451  -3.6018   0.0000   0.3174
   6.000   1.9511   0.08408   0.07848  -0.1688  0.1636  0.6469  -3.6624   0.0000   0.3157
   6.200   1.9632   0.08485   0.07927  -0.1675  0.1608  0.6491  -3.7287   0.0000   0.3141
   6.400   1.9766   0.08582   0.08026  -0.1666  0.1574  0.6516  -3.8001   0.0000   0.3127
   6.600   1.9929   0.08716   0.08158  -0.1661  0.1535  0.6545  -3.8801   0.0000   0.3113
   6.800   2.0023   0.08807   0.08252  -0.1647  0.1504  0.6560  -3.9442   0.0000   0.3097
   7.000   2.0076   0.08877   0.08326  -0.1626  0.1474  0.6567  -4.0001   0.0000   0.3081
   7.200   2.0124   0.08954   0.08405  -0.1606  0.1440  0.6575  -4.0578   0.0000   0.3064
   7.400   2.0166   0.09037   0.08488  -0.1586  0.1408  0.6583  -4.1142   0.0000   0.3048
   7.600   2.0219   0.09109   0.08564  -0.1566  0.1383  0.6592  -4.1762   0.0000   0.3032
   7.800   2.0265   0.09194   0.08654  -0.1547  0.1359  0.6602  -4.2384   0.0000   0.3016
   8.000   2.0311   0.09289   0.08751  -0.1529  0.1333  0.6612  -4.3007   0.0000   0.3001
   8.200   2.0355   0.09391   0.08855  -0.1511  0.1304  0.6623  -4.3628   0.0000   0.2986
   8.400   2.0399   0.09502   0.08969  -0.1494  0.1279  0.6634  -4.4252   0.0000   0.2971
   8.600   2.0453   0.09612   0.09083  -0.1478  0.1252  0.6645  -4.4909   0.0000   0.2957
   8.800   2.0504   0.09733   0.09207  -0.1464  0.1220  0.6658  -4.5580   0.0000   0.2943
   9.000   2.0538   0.09886   0.09361  -0.1449  0.1187  0.6673  -4.6213   0.0000   0.2930
   9.200   2.0614   0.10033   0.09511  -0.1440  0.1158  0.6694  -4.6988   0.0000   0.2917
   9.400   2.0783   0.10270   0.09750  -0.1446  0.1114  0.6739  -4.8063   0.0000   0.2909
   9.600   2.0772   0.10409   0.09891  -0.1429  0.1087  0.6744  -4.8602   0.0000   0.2895
   9.800   2.0772   0.10541   0.10028  -0.1412  0.1064  0.6750  -4.9172   0.0000   0.2882
  10.000   2.0774   0.10675   0.10167  -0.1397  0.1037  0.6755  -4.9749   0.0000   0.2869
  10.200   2.0761   0.10832   0.10327  -0.1383  0.1009  0.6760  -5.0280   0.0000   0.2857
  10.400   2.0738   0.11005   0.10503  -0.1369  0.0984  0.6764  -5.0778   0.0000   0.2846
  10.600   2.0743   0.11149   0.10652  -0.1358  0.0962  0.6770  -5.1361   0.0000   0.2835
  10.800   2.0732   0.11314   0.10822  -0.1347  0.0937  0.6775  -5.1932   0.0000   0.2824
  11.000   2.0705   0.11500   0.11013  -0.1337  0.0912  0.6781  -5.2449   0.0000   0.2814
  11.200   2.0682   0.11682   0.11199  -0.1329  0.0891  0.6787  -5.2974   0.0000   0.2805
  11.400   2.0667   0.11855   0.11377  -0.1321  0.0870  0.6793  -5.3526   0.0000   0.2796
  11.600   2.0637   0.12049   0.11576  -0.1315  0.0847  0.6800  -5.4021   0.0000   0.2788
  11.800   2.0593   0.12263   0.11794  -0.1311  0.0824  0.6807  -5.4463   0.0000   0.2781
  12.000   2.0565   0.12461   0.11998  -0.1308  0.0804  0.6815  -5.4958   0.0000   0.2774
  12.200   2.0536   0.12668   0.12211  -0.1307  0.0782  0.6823  -5.5443   0.0000   0.2767
  12.400   2.0494   0.12899   0.12446  -0.1308  0.0760  0.6832  -5.5875   0.0000   0.2762
  12.600   2.0441   0.13152   0.12704  -0.1312  0.0740  0.6841  -5.6257   0.0000   0.2759
  12.800   2.0426   0.13372   0.12930  -0.1316  0.0721  0.6853  -5.6776   0.0000   0.2755
  13.000   2.0401   0.13624   0.13187  -0.1324  0.0700  0.6867  -5.7249   0.0000   0.2752
  13.200   2.0375   0.13929   0.13497  -0.1340  0.0678  0.6888  -5.7707   0.0000   0.2753
  13.400   2.0428   0.14273   0.13846  -0.1365  0.0655  0.6924  -5.8453   0.0000   0.2756
  13.600   2.0363   0.14510   0.14090  -0.1372  0.0639  0.6927  -5.8755   0.0000   0.2754
  13.800   2.0286   0.14765   0.14351  -0.1382  0.0623  0.6931  -5.8998   0.0000   0.2754
  14.000   2.0196   0.15042   0.14634  -0.1395  0.0608  0.6934  -5.9174   0.0000   0.2756
  14.200   2.0129   0.15287   0.14886  -0.1406  0.0595  0.6938  -5.9434   0.0000   0.2756
  14.400   2.0055   0.15543   0.15148  -0.1419  0.0581  0.6942  -5.9660   0.0000   0.2758
  14.600   1.9974   0.15812   0.15423  -0.1433  0.0567  0.6946  -5.9839   0.0000   0.2760
  14.800   1.9883   0.16096   0.15714  -0.1451  0.0553  0.6949  -5.9965   0.0000   0.2764
  15.000   1.9801   0.16369   0.15993  -0.1468  0.0542  0.6953  -6.0120   0.0000   0.2768
  15.200   1.9729   0.16631   0.16262  -0.1485  0.0530  0.6957  -6.0309   0.0000   0.2772
  15.400   1.9653   0.16902   0.16539  -0.1504  0.0517  0.6961  -6.0464   0.0000   0.2776
  15.600   1.9576   0.17177   0.16820  -0.1524  0.0505  0.6965  -6.0606   0.0000   0.2781
  15.800   1.9481   0.17481   0.17130  -0.1547  0.0493  0.6969  -6.0649   0.0000   0.2789
  16.000   1.9414   0.17746   0.17401  -0.1568  0.0482  0.6973  -6.0813   0.0000   0.2794
  16.200   1.9356   0.17997   0.17657  -0.1587  0.0470  0.6978  -6.1018   0.0000   0.2798
  16.400   1.9279   0.18282   0.17948  -0.1611  0.0458  0.6983  -6.1109   0.0000   0.2805
  16.600   1.9208   0.18557   0.18228  -0.1635  0.0446  0.6988  -6.1224   0.0000   0.2812
  16.800   1.9138   0.18835   0.18511  -0.1660  0.0436  0.6994  -6.1328   0.0000   0.2820
  17.000   1.9097   0.19070   0.18751  -0.1680  0.0425  0.7001  -6.1593   0.0000   0.2824
  17.200   1.9034   0.19342   0.19028  -0.1705  0.0414  0.7008  -6.1745   0.0000   0.2831
  17.400   1.8983   0.19597   0.19287  -0.1729  0.0403  0.7017  -6.1958   0.0000   0.2838
  17.600   1.8917   0.19885   0.19579  -0.1757  0.0393  0.7027  -6.2064   0.0000   0.2847
  17.800   1.8901   0.20110   0.19809  -0.1779  0.0383  0.7041  -6.2443   0.0000   0.2851
  18.000   1.8890   0.20391   0.20095  -0.1810  0.0372  0.7065  -6.2794   0.0000   0.2858
  18.200   1.8927   0.20751   0.20457  -0.1855  0.0360  0.7104  -6.3318   0.0000   0.2870
  18.400   1.8873   0.20982   0.20693  -0.1877  0.0352  0.7107  -6.3487   0.0000   0.2876
  18.600   1.8830   0.21197   0.20912  -0.1898  0.0345  0.7110  -6.3709   0.0000   0.2881
  18.800   1.8797   0.21391   0.21111  -0.1917  0.0337  0.7113  -6.3993   0.0000   0.2884
  19.000   1.8759   0.21594   0.21318  -0.1937  0.0329  0.7116  -6.4242   0.0000   0.2888
  19.200   1.8701   0.21834   0.21562  -0.1963  0.0321  0.7119  -6.4340   0.0000   0.2896
  19.600   1.8633   0.22226   0.21961  -0.2004  0.0307  0.7125  -6.4846   0.0000   0.2904
  19.800   1.8594   0.22432   0.22172  -0.2026  0.0300  0.7128  -6.5048   0.0000   0.2909
  20.000   1.8564   0.22619   0.22363  -0.2046  0.0293  0.7132  -6.5312   0.0000   0.2913
  20.200   1.8530   0.22812   0.22559  -0.2067  0.0287  0.7136  -6.5543   0.0000   0.2917
  20.400   1.8477   0.23042   0.22791  -0.2093  0.0280  0.7140  -6.5643   0.0000   0.2925
  20.600   1.8452   0.23218   0.22971  -0.2113  0.0274  0.7144  -6.5962   0.0000   0.2928
  20.800   1.8434   0.23380   0.23137  -0.2131  0.0268  0.7149  -6.6338   0.0000   0.2930
  21.000   1.8406   0.23566   0.23327  -0.2153  0.0262  0.7154  -6.6613   0.0000   0.2934
  21.200   1.8370   0.23768   0.23533  -0.2177  0.0255  0.7160  -6.6820   0.0000   0.2940
  21.400   1.8340   0.23961   0.23728  -0.2200  0.0249  0.7165  -6.7068   0.0000   0.2945
  21.600   1.8319   0.24141   0.23910  -0.2222  0.0244  0.7171  -6.7374   0.0000   0.2949
  21.800   1.8298   0.24324   0.24099  -0.2245  0.0238  0.7178  -6.7666   0.0000   0.2953
  22.000   1.8283   0.24498   0.24275  -0.2267  0.0233  0.7185  -6.8006   0.0000   0.2956
  22.200   1.8270   0.24672   0.24452  -0.2289  0.0227  0.7193  -6.8348   0.0000   0.2960
  22.400   1.8249   0.24868   0.24651  -0.2315  0.0221  0.7202  -6.8601   0.0000   0.2965
  22.600   1.8219   0.25089   0.24874  -0.2344  0.0216  0.7213  -6.8768   0.0000   0.2973
  22.800   1.8230   0.25254   0.25043  -0.2367  0.0211  0.7228  -6.9275   0.0000   0.2975
  23.000   1.8316   0.25519   0.25311  -0.2409  0.0205  0.7278  -7.0104   0.0000   0.2981
  23.200   1.8287   0.25686   0.25482  -0.2431  0.0200  0.7280  -7.0344   0.0000   0.2985
  23.400   1.8254   0.25860   0.25659  -0.2455  0.0195  0.7283  -7.0539   0.0000   0.2990
  23.600   1.8227   0.26018   0.25819  -0.2476  0.0191  0.7286  -7.0796   0.0000   0.2993


