xflr5 v6.47

 Calculated polar for: NACA24018_theta30_Ku4.5_Kl0.5_d0.10_delta2.45

 1 1 Reynolds number fixed          Mach number fixed         

 xtrf =   1.000 (top)        1.000 (bottom)
 Mach =   0.000     Re =     1.200 e 6     Ncrit =   5.000

  alpha     CL        CD       CDp       Cm    Top Xtr Bot Xtr   Cpmin    Chinge    XCp    
 ------- -------- --------- --------- -------- ------- ------- -------- --------- ---------
 -14.600  -1.0179   0.02761   0.02249  -0.0802  0.9694  0.0278  -6.5555   0.0000   0.1485
 -14.000  -0.9675   0.02578   0.02057  -0.0805  0.9624  0.0287  -6.1705   0.0000   0.1449
 -13.800  -0.9497   0.02523   0.02001  -0.0808  0.9612  0.0291  -6.0410   0.0000   0.1433
 -13.400  -0.9234   0.02393   0.01867  -0.0794  0.9562  0.0298  -5.8149   0.0000   0.1430
 -13.200  -0.9064   0.02343   0.01817  -0.0793  0.9551  0.0303  -5.6895   0.0000   0.1417
 -13.000  -0.8876   0.02299   0.01771  -0.0795  0.9544  0.0307  -5.5588   0.0000   0.1399
 -12.800  -0.8816   0.02232   0.01703  -0.0772  0.9506  0.0311  -5.4716   0.0000   0.1423
 -12.600  -0.8666   0.02184   0.01652  -0.0766  0.9490  0.0315  -5.3549   0.0000   0.1417
 -12.400  -0.8497   0.02142   0.01608  -0.0762  0.9480  0.0320  -5.2329   0.0000   0.1406
 -12.200  -0.8456   0.02084   0.01548  -0.0735  0.9444  0.0323  -5.1528   0.0000   0.1438
 -12.000  -0.8317   0.02036   0.01498  -0.0725  0.9422  0.0326  -5.0423   0.0000   0.1439
 -11.800  -0.8129   0.01988   0.01449  -0.0724  0.9411  0.0332  -4.9218   0.0000   0.1421
 -11.400  -0.7866   0.01886   0.01347  -0.0699  0.9347  0.0342  -4.7174   0.0000   0.1428
 -11.000  -0.7607   0.01798   0.01258  -0.0672  0.9251  0.0353  -4.5165   0.0000   0.1438
 -10.800  -0.7519   0.01764   0.01223  -0.0650  0.9152  0.0357  -4.4293   0.0000   0.1460
 -10.600  -0.7338   0.01732   0.01190  -0.0646  0.9103  0.0363  -4.3156   0.0000   0.1447
 -10.400  -0.7114   0.01698   0.01155  -0.0648  0.9073  0.0369  -4.1911   0.0000   0.1417
 -10.200  -0.6886   0.01660   0.01118  -0.0652  0.9045  0.0378  -4.0665   0.0000   0.1382
 -10.000  -0.6666   0.01627   0.01085  -0.0653  0.8999  0.0386  -3.9451   0.0000   0.1348
  -9.800  -0.6414   0.01592   0.01050  -0.0660  0.8967  0.0395  -3.8166   0.0000   0.1299
  -9.600  -0.6147   0.01556   0.01014  -0.0670  0.8936  0.0404  -3.6863   0.0000   0.1238
  -9.400  -0.5874   0.01522   0.00979  -0.0681  0.8882  0.0411  -3.5609   0.0000   0.1168
  -9.200  -0.5547   0.01474   0.00931  -0.0702  0.8833  0.0423  -3.4237   0.0000   0.1060
  -9.000  -0.5186   0.01422   0.00878  -0.0729  0.8746  0.0436  -3.2794   0.0000   0.0914
  -8.800  -0.4731   0.01359   0.00811  -0.0775  0.8626  0.0451  -3.1151   0.0000   0.0676
  -8.600  -0.4285   0.01302   0.00747  -0.0819  0.8448  0.0466  -2.9565   0.0000   0.0394
  -8.400  -0.3936   0.01263   0.00701  -0.0845  0.8249  0.0484  -2.8286   0.0000   0.0151
  -8.200  -0.3679   0.01241   0.00672  -0.0852  0.8032  0.0500  -2.7228   0.0000  -0.0026
  -8.000  -0.3457   0.01228   0.00649  -0.0853  0.7801  0.0513  -2.6260   0.0000  -0.0181
  -7.800  -0.3248   0.01217   0.00630  -0.0851  0.7578  0.0529  -2.5334   0.0000  -0.0339
  -7.600  -0.3040   0.01207   0.00614  -0.0850  0.7364  0.0547  -2.4418   0.0000  -0.0519
  -7.400  -0.2831   0.01200   0.00599  -0.0848  0.7160  0.0564  -2.3511   0.0000  -0.0725
  -7.200  -0.2620   0.01194   0.00585  -0.0846  0.6960  0.0578  -2.2612   0.0000  -0.0969
  -7.000  -0.2400   0.01186   0.00572  -0.0847  0.6772  0.0601  -2.1706   0.0000  -0.1277
  -6.800  -0.2175   0.01179   0.00560  -0.0848  0.6604  0.0624  -2.0801   0.0000  -0.1660
  -6.600  -0.1949   0.01174   0.00549  -0.0849  0.6431  0.0644  -1.9905   0.0000  -0.2138
  -6.400  -0.1717   0.01167   0.00538  -0.0852  0.6252  0.0670  -1.9013   0.0000  -0.2762
  -6.200  -0.1484   0.01163   0.00529  -0.0854  0.6075  0.0696  -1.8129   0.0000  -0.3588
  -6.000  -0.1248   0.01159   0.00519  -0.0857  0.5912  0.0723  -1.7296   0.0000  -0.4746
  -5.800  -0.1007   0.01154   0.00511  -0.0862  0.5762  0.0761  -1.6501   0.0000  -0.6504
  -5.600  -0.0767   0.01151   0.00503  -0.0865  0.5604  0.0792  -1.5721   0.0000  -0.9335
  -5.400  -0.0522   0.01147   0.00495  -0.0870  0.5443  0.0834  -1.4943   0.0000  -1.4955
  -5.200  -0.0278   0.01145   0.00489  -0.0875  0.5285  0.0873  -1.4211   0.0000  -3.0278
  -5.000  -0.0031   0.01142   0.00483  -0.0880  0.5140  0.0924  -1.3488   0.0000  -29.7133
  -4.600   0.0465   0.01139   0.00473  -0.0891  0.4844  0.1048  -1.2071   0.0000   2.2326
  -4.400   0.0714   0.01138   0.00470  -0.0897  0.4700  0.1116  -1.1377   0.0000   1.5461
  -4.000   0.1223   0.01134   0.00464  -0.0910  0.4459  0.1326  -1.0046   0.0000   1.0140
  -3.600   0.1749   0.01129   0.00461  -0.0928  0.4220  0.1630  -0.8759   0.0000   0.7918
  -3.400   0.2027   0.01124   0.00461  -0.0940  0.4103  0.1878  -0.8113   0.0000   0.7224
  -3.200   0.2340   0.01115   0.00461  -0.0960  0.3986  0.2322  -0.8231   0.0000   0.6669
  -2.800   0.3070   0.01088   0.00472  -0.1024  0.3768  0.3700  -0.8910   0.0000   0.5868
  -2.600   0.3377   0.01090   0.00478  -0.1042  0.3672  0.4028  -0.9215   0.0000   0.5608
  -2.400   0.3685   0.01092   0.00486  -0.1060  0.3576  0.4340  -0.9524   0.0000   0.5390
  -2.200   0.3998   0.01095   0.00494  -0.1078  0.3504  0.4635  -0.9838   0.0000   0.5204
  -2.000   0.4291   0.01101   0.00502  -0.1092  0.3432  0.4857  -1.0150   0.0000   0.5047
  -1.800   0.4578   0.01108   0.00511  -0.1105  0.3370  0.5042  -1.0464   0.0000   0.4909
  -1.400   0.5158   0.01125   0.00530  -0.1132  0.3237  0.5387  -1.1129   0.0000   0.4680
  -1.200   0.5460   0.01133   0.00541  -0.1148  0.3186  0.5577  -1.1475   0.0000   0.4583
  -1.000   0.5760   0.01143   0.00553  -0.1163  0.3127  0.5764  -1.1822   0.0000   0.4496
  -0.800   0.6038   0.01154   0.00563  -0.1174  0.3075  0.5891  -1.2154   0.0000   0.4417
  -0.600   0.6297   0.01164   0.00573  -0.1180  0.3031  0.5975  -1.2475   0.0000   0.4344
  -0.400   0.6552   0.01175   0.00583  -0.1186  0.2988  0.6039  -1.2793   0.0000   0.4276
   0.000   0.7051   0.01197   0.00603  -0.1195  0.2916  0.6167  -1.3455   0.0000   0.4155
   0.200   0.7313   0.01208   0.00614  -0.1203  0.2880  0.6234  -1.3800   0.0000   0.4101
   0.400   0.7561   0.01221   0.00626  -0.1207  0.2838  0.6303  -1.4136   0.0000   0.4050
   0.600   0.7810   0.01235   0.00638  -0.1212  0.2794  0.6365  -1.4473   0.0000   0.4003
   0.800   0.8062   0.01247   0.00651  -0.1217  0.2767  0.6429  -1.4816   0.0000   0.3958
   1.000   0.8303   0.01259   0.00662  -0.1220  0.2738  0.6490  -1.5156   0.0000   0.3914
   1.200   0.8557   0.01273   0.00677  -0.1226  0.2703  0.6554  -1.5528   0.0000   0.3875
   1.400   0.8800   0.01288   0.00691  -0.1229  0.2664  0.6621  -1.5901   0.0000   0.3836
   1.600   0.9040   0.01303   0.00705  -0.1232  0.2631  0.6677  -1.6274   0.0000   0.3800
   1.800   0.9288   0.01317   0.00719  -0.1236  0.2601  0.6740  -1.6658   0.0000   0.3766
   2.000   0.9525   0.01332   0.00734  -0.1239  0.2567  0.6803  -1.7033   0.0000   0.3732
   2.200   0.9764   0.01348   0.00750  -0.1241  0.2530  0.6860  -1.7412   0.0000   0.3701
   2.400   1.0001   0.01366   0.00767  -0.1244  0.2496  0.6922  -1.7790   0.0000   0.3670
   2.600   1.0234   0.01380   0.00782  -0.1245  0.2475  0.6979  -1.8167   0.0000   0.3641
   2.800   1.0472   0.01396   0.00799  -0.1248  0.2450  0.7035  -1.8552   0.0000   0.3613
   3.000   1.0704   0.01413   0.00816  -0.1249  0.2421  0.7094  -1.8948   0.0000   0.3586
   3.400   1.1154   0.01451   0.00854  -0.1249  0.2354  0.7200  -1.9769   0.0000   0.3533
   3.600   1.1382   0.01468   0.00872  -0.1250  0.2330  0.7257  -2.0190   0.0000   0.3509
   3.800   1.1604   0.01486   0.00890  -0.1249  0.2302  0.7307  -2.0607   0.0000   0.3485
   4.000   1.1821   0.01505   0.00910  -0.1248  0.2269  0.7354  -2.1019   0.0000   0.3461
   4.200   1.2035   0.01527   0.00932  -0.1246  0.2236  0.7406  -2.1431   0.0000   0.3438
   4.400   1.2250   0.01548   0.00952  -0.1244  0.2211  0.7454  -2.1847   0.0000   0.3415
   4.600   1.2463   0.01566   0.00973  -0.1242  0.2191  0.7495  -2.2268   0.0000   0.3393
   4.800   1.2670   0.01586   0.00994  -0.1238  0.2166  0.7540  -2.2719   0.0000   0.3372
   5.000   1.2876   0.01608   0.01016  -0.1235  0.2135  0.7585  -2.3171   0.0000   0.3351
   5.200   1.3079   0.01634   0.01041  -0.1232  0.2100  0.7626  -2.3622   0.0000   0.3330
   5.400   1.3269   0.01657   0.01065  -0.1225  0.2072  0.7665  -2.4060   0.0000   0.3309
   5.600   1.3461   0.01679   0.01089  -0.1219  0.2048  0.7707  -2.4503   0.0000   0.3289
   5.800   1.3657   0.01703   0.01114  -0.1214  0.2022  0.7748  -2.4953   0.0000   0.3269
   6.000   1.3857   0.01730   0.01141  -0.1210  0.1996  0.7786  -2.5421   0.0000   0.3250
   6.200   1.4031   0.01758   0.01169  -0.1201  0.1967  0.7819  -2.5868   0.0000   0.3230
   6.400   1.4204   0.01783   0.01196  -0.1192  0.1943  0.7852  -2.6321   0.0000   0.3210
   6.600   1.4387   0.01808   0.01223  -0.1185  0.1919  0.7886  -2.6823   0.0000   0.3191
   6.800   1.4576   0.01836   0.01252  -0.1179  0.1889  0.7921  -2.7341   0.0000   0.3174
   7.000   1.4770   0.01869   0.01284  -0.1174  0.1857  0.7953  -2.7869   0.0000   0.3157
   7.200   1.4914   0.01901   0.01316  -0.1160  0.1825  0.7983  -2.8330   0.0000   0.3137
   7.400   1.5072   0.01927   0.01345  -0.1149  0.1804  0.8013  -2.8812   0.0000   0.3117
   7.600   1.5234   0.01957   0.01377  -0.1138  0.1779  0.8042  -2.9303   0.0000   0.3099
   7.800   1.5402   0.01992   0.01412  -0.1129  0.1752  0.8071  -2.9832   0.0000   0.3082
   8.000   1.5577   0.02032   0.01452  -0.1122  0.1722  0.8098  -3.0392   0.0000   0.3066
   8.200   1.5739   0.02070   0.01491  -0.1112  0.1693  0.8123  -3.0936   0.0000   0.3049
   8.400   1.5865   0.02101   0.01524  -0.1095  0.1668  0.8147  -3.1453   0.0000   0.3029
   8.600   1.5997   0.02136   0.01561  -0.1080  0.1638  0.8172  -3.2022   0.0000   0.3011
   8.800   1.6126   0.02180   0.01605  -0.1065  0.1608  0.8197  -3.2591   0.0000   0.2993
   9.000   1.6265   0.02228   0.01654  -0.1052  0.1576  0.8221  -3.3179   0.0000   0.2976
   9.200   1.6432   0.02270   0.01698  -0.1045  0.1549  0.8244  -3.3837   0.0000   0.2961
   9.400   1.6601   0.02320   0.01747  -0.1038  0.1515  0.8264  -3.4511   0.0000   0.2947
   9.600   1.6717   0.02371   0.01799  -0.1022  0.1482  0.8282  -3.5093   0.0000   0.2929
   9.800   1.6794   0.02420   0.01850  -0.0999  0.1457  0.8301  -3.5610   0.0000   0.2909
  10.000   1.6892   0.02464   0.01897  -0.0979  0.1435  0.8321  -3.6200   0.0000   0.2891
  10.200   1.6999   0.02514   0.01950  -0.0962  0.1408  0.8342  -3.6843   0.0000   0.2873
  10.400   1.7107   0.02578   0.02014  -0.0946  0.1376  0.8361  -3.7501   0.0000   0.2857
  10.600   1.7222   0.02647   0.02084  -0.0933  0.1345  0.8379  -3.8191   0.0000   0.2842
  10.800   1.7360   0.02710   0.02149  -0.0923  0.1319  0.8397  -3.8937   0.0000   0.2828
  11.000   1.7491   0.02786   0.02226  -0.0913  0.1283  0.8414  -3.9671   0.0000   0.2814
  11.200   1.7589   0.02875   0.02315  -0.0899  0.1246  0.8429  -4.0336   0.0000   0.2800
  11.400   1.7632   0.02940   0.02383  -0.0874  0.1224  0.8443  -4.0905   0.0000   0.2780
  11.600   1.7678   0.03012   0.02459  -0.0851  0.1199  0.8458  -4.1501   0.0000   0.2762
  11.800   1.7724   0.03098   0.02547  -0.0829  0.1170  0.8471  -4.2115   0.0000   0.2745
  12.000   1.7772   0.03198   0.02648  -0.0810  0.1140  0.8485  -4.2741   0.0000   0.2728
  12.200   1.7845   0.03289   0.02742  -0.0794  0.1118  0.8499  -4.3432   0.0000   0.2714
  12.400   1.7916   0.03390   0.02847  -0.0780  0.1091  0.8513  -4.4119   0.0000   0.2700
  12.600   1.7977   0.03509   0.02967  -0.0766  0.1061  0.8527  -4.4789   0.0000   0.2686
  12.800   1.8041   0.03638   0.03098  -0.0754  0.1033  0.8541  -4.5485   0.0000   0.2674
  13.000   1.8127   0.03762   0.03225  -0.0746  0.1007  0.8554  -4.6245   0.0000   0.2663
  13.200   1.8201   0.03910   0.03375  -0.0739  0.0974  0.8567  -4.6972   0.0000   0.2652
  13.600   1.8228   0.04204   0.03676  -0.0708  0.0926  0.8586  -4.8104   0.0000   0.2625
  13.800   1.8218   0.04351   0.03827  -0.0689  0.0904  0.8595  -4.8603   0.0000   0.2611
  14.000   1.8199   0.04521   0.04000  -0.0673  0.0881  0.8603  -4.9074   0.0000   0.2598
  14.200   1.8167   0.04712   0.04195  -0.0658  0.0859  0.8612  -4.9505   0.0000   0.2586
  14.400   1.8163   0.04884   0.04373  -0.0646  0.0841  0.8621  -5.0013   0.0000   0.2574
  14.600   1.8150   0.05075   0.04568  -0.0636  0.0821  0.8629  -5.0498   0.0000   0.2564
  14.800   1.8122   0.05292   0.04790  -0.0627  0.0800  0.8637  -5.0948   0.0000   0.2554
  15.000   1.8076   0.05539   0.05042  -0.0620  0.0780  0.8645  -5.1339   0.0000   0.2546
  15.200   1.8053   0.05773   0.05282  -0.0615  0.0763  0.8653  -5.1794   0.0000   0.2539
  15.400   1.8025   0.06024   0.05538  -0.0612  0.0745  0.8661  -5.2229   0.0000   0.2533
  15.600   1.7977   0.06308   0.05828  -0.0612  0.0726  0.8669  -5.2595   0.0000   0.2528
  15.800   1.7908   0.06629   0.06154  -0.0614  0.0707  0.8676  -5.2883   0.0000   0.2525
  16.000   1.7852   0.06944   0.06476  -0.0617  0.0691  0.8683  -5.3208   0.0000   0.2522
  16.200   1.7803   0.07265   0.06803  -0.0623  0.0675  0.8689  -5.3588   0.0000   0.2521
  16.400   1.7730   0.07622   0.07167  -0.0631  0.0659  0.8694  -5.3890   0.0000   0.2521
  16.600   1.7637   0.08014   0.07566  -0.0641  0.0644  0.8699  -5.4104   0.0000   0.2522
  16.800   1.7531   0.08430   0.07989  -0.0654  0.0630  0.8704  -5.4258   0.0000   0.2526
  17.000   1.7451   0.08822   0.08388  -0.0667  0.0618  0.8709  -5.4498   0.0000   0.2529
  17.200   1.7366   0.09230   0.08805  -0.0683  0.0606  0.8713  -5.4704   0.0000   0.2534
  17.400   1.7249   0.09658   0.09241  -0.0698  0.0593  0.8717  -5.4783   0.0000   0.2539
  17.600   1.7100   0.10086   0.09676  -0.0711  0.0582  0.8720  -5.4733   0.0000   0.2544
  17.800   1.6945   0.10529   0.10127  -0.0726  0.0570  0.8722  -5.4635   0.0000   0.2551
  18.000   1.6795   0.10967   0.10572  -0.0742  0.0560  0.8725  -5.4544   0.0000   0.2558
  18.200   1.6675   0.11363   0.10977  -0.0758  0.0551  0.8728  -5.4559   0.0000   0.2565
  18.400   1.6553   0.11768   0.11389  -0.0775  0.0540  0.8730  -5.4544   0.0000   0.2572
  18.600   1.6427   0.12180   0.11808  -0.0793  0.0530  0.8733  -5.4498   0.0000   0.2581
  18.800   1.6297   0.12600   0.12234  -0.0814  0.0519  0.8736  -5.4416   0.0000   0.2591
  19.000   1.6170   0.13014   0.12654  -0.0835  0.0508  0.8738  -5.4328   0.0000   0.2602
  19.200   1.6063   0.13391   0.13037  -0.0854  0.0499  0.8742  -5.4322   0.0000   0.2611
  19.400   1.5969   0.13750   0.13402  -0.0873  0.0490  0.8745  -5.4356   0.0000   0.2619
  19.600   1.5889   0.14085   0.13742  -0.0891  0.0480  0.8749  -5.4447   0.0000   0.2627
  19.800   1.5797   0.14445   0.14108  -0.0911  0.0470  0.8753  -5.4462   0.0000   0.2637
  20.000   1.5699   0.14824   0.14491  -0.0935  0.0459  0.8758  -5.4426   0.0000   0.2649
  20.200   1.5617   0.15179   0.14851  -0.0957  0.0448  0.8762  -5.4455   0.0000   0.2661
  20.400   1.5553   0.15512   0.15189  -0.0979  0.0439  0.8766  -5.4558   0.0000   0.2671
  20.600   1.5513   0.15811   0.15492  -0.0999  0.0429  0.8770  -5.4766   0.0000   0.2679
  20.800   1.5449   0.16155   0.15840  -0.1024  0.0418  0.8774  -5.4838   0.0000   0.2691
  21.000   1.5394   0.16485   0.16174  -0.1048  0.0407  0.8778  -5.4939   0.0000   0.2703
  21.400   1.5308   0.17114   0.16811  -0.1097  0.0390  0.8787  -5.5234   0.0000   0.2725
  21.600   1.5295   0.17382   0.17082  -0.1118  0.0381  0.8793  -5.5532   0.0000   0.2733
  21.800   1.5252   0.17712   0.17417  -0.1145  0.0372  0.8799  -5.5636   0.0000   0.2746
  22.000   1.5232   0.18009   0.17716  -0.1170  0.0363  0.8805  -5.5860   0.0000   0.2757
  22.200   1.5195   0.18345   0.18056  -0.1200  0.0354  0.8811  -5.5968   0.0000   0.2772
  22.400   1.5193   0.18633   0.18348  -0.1227  0.0347  0.8817  -5.6256   0.0000   0.2783
  22.600   1.5210   0.18899   0.18617  -0.1253  0.0339  0.8823  -5.6640   0.0000   0.2792
  22.800   1.5206   0.19209   0.18931  -0.1283  0.0330  0.8829  -5.6883   0.0000   0.2805
  23.000   1.5197   0.19536   0.19261  -0.1316  0.0321  0.8834  -5.7081   0.0000   0.2820
  23.200   1.5201   0.19852   0.19578  -0.1349  0.0312  0.8840  -5.7335   0.0000   0.2834
  23.400   1.5219   0.20155   0.19885  -0.1382  0.0305  0.8845  -5.7652   0.0000   0.2847
  23.600   1.5236   0.20434   0.20168  -0.1412  0.0298  0.8850  -5.7988   0.0000   0.2858
  23.800   1.5218   0.20652   0.20389  -0.1429  0.0291  0.8853  -5.8249   0.0000   0.2864
  24.000   1.5184   0.20898   0.20638  -0.1449  0.0285  0.8857  -5.8396   0.0000   0.2873
  24.200   1.5136   0.21177   0.20920  -0.1473  0.0279  0.8860  -5.8422   0.0000   0.2884
  24.400   1.5117   0.21402   0.21146  -0.1493  0.0273  0.8863  -5.8677   0.0000   0.2891
  24.600   1.5116   0.21597   0.21345  -0.1510  0.0268  0.8866  -5.9061   0.0000   0.2895
  24.800   1.5091   0.21849   0.21601  -0.1533  0.0263  0.8868  -5.9242   0.0000   0.2905
  25.000   1.5081   0.22072   0.21826  -0.1554  0.0257  0.8871  -5.9533   0.0000   0.2912


