xflr5 v6.47

 Calculated polar for: NACA24018_theta30_Ku4.5_Kl0.5_d0.31_delta11.03

 1 1 Reynolds number fixed          Mach number fixed         

 xtrf =   1.000 (top)        1.000 (bottom)
 Mach =   0.000     Re =     1.800 e 6     Ncrit =   5.000

  alpha     CL        CD       CDp       Cm    Top Xtr Bot Xtr   Cpmin    Chinge    XCp    
 ------- -------- --------- --------- -------- ------- ------- -------- --------- ---------
 -15.000  -0.2278   0.04892   0.04525  -0.1565  0.7920  0.0430  -3.7722   0.0000  -0.5021
 -14.800  -0.2001   0.04925   0.04558  -0.1580  0.7919  0.0437  -3.6351   0.0000  -0.6113
 -14.600  -0.1726   0.04960   0.04593  -0.1593  0.7918  0.0443  -3.5005   0.0000  -0.7538
 -14.400  -0.1443   0.05008   0.04643  -0.1610  0.7918  0.0453  -3.3657   0.0000  -0.9589
 -14.200  -0.1172   0.05057   0.04694  -0.1623  0.7918  0.0463  -3.2356   0.0000  -1.2460
 -14.000  -0.0909   0.05108   0.04745  -0.1635  0.7918  0.0473  -3.1124   0.0000  -1.6868
 -13.800  -0.0652   0.05158   0.04797  -0.1645  0.7918  0.0482  -2.9995   0.0000  -2.4622
 -13.600  -0.0389   0.05206   0.04846  -0.1657  0.7917  0.0491  -2.8867   0.0000  -4.3153
 -13.400  -0.0055   0.05232   0.04874  -0.1678  0.7914  0.0508  -2.7583   0.0000  -32.0755
  -9.600   0.5939   0.05783   0.05453  -0.1994  0.7195  0.1074  -0.9818   0.0000   0.5928
  -9.400   0.6637   0.05573   0.05188  -0.2062  0.6341  0.1195  -1.1123   0.0000   0.5666
  -9.200   0.6692   0.05748   0.05342  -0.2041  0.5837  0.1232  -1.0813   0.0000   0.5601
  -9.000   0.6898   0.05874   0.05456  -0.2042  0.5510  0.1314  -1.0728   0.0000   0.5505
  -8.800   0.7126   0.05980   0.05551  -0.2047  0.5216  0.1402  -1.0692   0.0000   0.5409
  -8.600   0.7364   0.06071   0.05632  -0.2052  0.4956  0.1497  -1.0686   0.0000   0.5316
  -8.400   0.7631   0.06164   0.05718  -0.2061  0.4722  0.1623  -1.0717   0.0000   0.5225
  -8.200   0.7924   0.06264   0.05814  -0.2075  0.4527  0.1791  -1.0777   0.0000   0.5136
  -8.000   0.8250   0.06380   0.05926  -0.2094  0.4349  0.2015  -1.0867   0.0000   0.5050
  -7.800   0.8588   0.06502   0.06046  -0.2115  0.4168  0.2281  -1.1005   0.0000   0.4969
  -7.600   0.8986   0.06660   0.06202  -0.2145  0.3981  0.2643  -1.1408   0.0000   0.4888
  -7.400   0.9441   0.06855   0.06398  -0.2185  0.3794  0.3124  -1.1891   0.0000   0.4810
  -7.200   0.9857   0.07030   0.06572  -0.2218  0.3636  0.3532  -1.2348   0.0000   0.4740
  -7.000   1.0180   0.07149   0.06689  -0.2235  0.3532  0.3748  -1.2732   0.0000   0.4681
  -6.800   1.0475   0.07253   0.06789  -0.2247  0.3440  0.3904  -1.3094   0.0000   0.4627
  -6.600   1.0750   0.07342   0.06878  -0.2256  0.3374  0.4029  -1.3442   0.0000   0.4577
  -6.400   1.0979   0.07406   0.06937  -0.2257  0.3301  0.4121  -1.3753   0.0000   0.4530
  -6.200   1.1241   0.07489   0.07019  -0.2263  0.3242  0.4215  -1.4094   0.0000   0.4484
  -6.000   1.1470   0.07552   0.07080  -0.2265  0.3190  0.4300  -1.4410   0.0000   0.4442
  -5.800   1.1723   0.07632   0.07157  -0.2270  0.3122  0.4384  -1.4747   0.0000   0.4400
  -5.600   1.1960   0.07702   0.07224  -0.2272  0.3064  0.4460  -1.5072   0.0000   0.4360
  -5.400   1.2200   0.07774   0.07295  -0.2275  0.3011  0.4550  -1.5428   0.0000   0.4321
  -5.200   1.2443   0.07850   0.07369  -0.2278  0.2950  0.4645  -1.5794   0.0000   0.4284
  -5.000   1.2645   0.07898   0.07414  -0.2275  0.2900  0.4690  -1.6122   0.0000   0.4249
  -4.800   1.2855   0.07951   0.07465  -0.2273  0.2871  0.4731  -1.6460   0.0000   0.4215
  -4.600   1.3067   0.08006   0.07520  -0.2271  0.2836  0.4773  -1.6801   0.0000   0.4181
  -4.400   1.3267   0.08054   0.07565  -0.2267  0.2793  0.4807  -1.7146   0.0000   0.4149
  -4.200   1.3460   0.08098   0.07606  -0.2263  0.2744  0.4836  -1.7487   0.0000   0.4118
  -4.000   1.3652   0.08140   0.07647  -0.2258  0.2715  0.4863  -1.7829   0.0000   0.4088
  -3.800   1.3844   0.08182   0.07687  -0.2253  0.2686  0.4887  -1.8172   0.0000   0.4058
  -3.600   1.4042   0.08229   0.07734  -0.2249  0.2654  0.4920  -1.8524   0.0000   0.4029
  -3.400   1.4244   0.08281   0.07784  -0.2245  0.2618  0.4954  -1.8882   0.0000   0.4001
  -3.200   1.4437   0.08327   0.07827  -0.2240  0.2576  0.4984  -1.9231   0.0000   0.3973
  -3.000   1.4628   0.08371   0.07871  -0.2235  0.2549  0.5017  -1.9581   0.0000   0.3946
  -2.800   1.4815   0.08412   0.07911  -0.2230  0.2517  0.5048  -1.9943   0.0000   0.3920
  -2.600   1.4998   0.08451   0.07949  -0.2223  0.2478  0.5072  -2.0319   0.0000   0.3894
  -2.400   1.5176   0.08490   0.07984  -0.2216  0.2437  0.5092  -2.0692   0.0000   0.3869
  -2.200   1.5362   0.08533   0.08026  -0.2210  0.2400  0.5123  -2.1075   0.0000   0.3845
  -2.000   1.5548   0.08575   0.08069  -0.2204  0.2381  0.5153  -2.1461   0.0000   0.3820
  -1.800   1.5730   0.08616   0.08109  -0.2198  0.2358  0.5182  -2.1844   0.0000   0.3797
  -1.600   1.5910   0.08656   0.08149  -0.2191  0.2329  0.5212  -2.2226   0.0000   0.3774
  -1.400   1.6087   0.08697   0.08188  -0.2184  0.2294  0.5241  -2.2616   0.0000   0.3751
  -1.200   1.6262   0.08737   0.08225  -0.2176  0.2254  0.5266  -2.3012   0.0000   0.3728
  -1.000   1.6437   0.08775   0.08263  -0.2169  0.2230  0.5287  -2.3410   0.0000   0.3706
  -0.800   1.6613   0.08815   0.08304  -0.2162  0.2209  0.5317  -2.3813   0.0000   0.3685
  -0.600   1.6788   0.08856   0.08345  -0.2154  0.2182  0.5345  -2.4215   0.0000   0.3664
  -0.400   1.6958   0.08896   0.08384  -0.2146  0.2145  0.5372  -2.4613   0.0000   0.3643
  -0.200   1.7125   0.08937   0.08422  -0.2138  0.2101  0.5398  -2.5024   0.0000   0.3622
   0.000   1.7297   0.08979   0.08463  -0.2130  0.2077  0.5426  -2.5465   0.0000   0.3602
   0.200   1.7468   0.09020   0.08505  -0.2122  0.2054  0.5452  -2.5907   0.0000   0.3582
   0.400   1.7635   0.09061   0.08546  -0.2113  0.2029  0.5472  -2.6345   0.0000   0.3563
   0.600   1.7792   0.09101   0.08585  -0.2104  0.1998  0.5499  -2.6771   0.0000   0.3543
   0.800   1.7945   0.09144   0.08626  -0.2093  0.1960  0.5525  -2.7194   0.0000   0.3524
   1.000   1.8098   0.09187   0.08670  -0.2083  0.1934  0.5550  -2.7651   0.0000   0.3505
   1.200   1.8251   0.09231   0.08714  -0.2073  0.1908  0.5574  -2.8114   0.0000   0.3486
   1.400   1.8402   0.09276   0.08759  -0.2062  0.1878  0.5601  -2.8579   0.0000   0.3468
   1.600   1.8553   0.09322   0.08804  -0.2052  0.1848  0.5627  -2.9044   0.0000   0.3449
   1.800   1.8703   0.09369   0.08848  -0.2042  0.1813  0.5650  -2.9510   0.0000   0.3432
   2.000   1.8857   0.09413   0.08893  -0.2032  0.1791  0.5667  -2.9985   0.0000   0.3414
   2.200   1.8999   0.09451   0.08931  -0.2020  0.1761  0.5690  -3.0482   0.0000   0.3396
   2.400   1.9137   0.09492   0.08971  -0.2008  0.1723  0.5713  -3.0994   0.0000   0.3379
   2.600   1.9272   0.09534   0.09012  -0.1996  0.1684  0.5736  -3.1503   0.0000   0.3361
   2.800   1.9414   0.09574   0.09053  -0.1984  0.1662  0.5760  -3.2027   0.0000   0.3344
   3.000   1.9558   0.09616   0.09096  -0.1973  0.1638  0.5786  -3.2556   0.0000   0.3327
   3.200   1.9698   0.09662   0.09142  -0.1962  0.1604  0.5811  -3.3084   0.0000   0.3311
   3.400   1.9833   0.09715   0.09192  -0.1950  0.1561  0.5833  -3.3675   0.0000   0.3294
   3.600   1.9974   0.09766   0.09241  -0.1939  0.1529  0.5850  -3.4294   0.0000   0.3278
   3.800   2.0110   0.09814   0.09290  -0.1928  0.1497  0.5866  -3.4905   0.0000   0.3262
   4.000   2.0225   0.09857   0.09332  -0.1913  0.1463  0.5886  -3.5480   0.0000   0.3245
   4.200   2.0335   0.09909   0.09384  -0.1899  0.1429  0.5907  -3.6110   0.0000   0.3229
   4.400   2.0448   0.09963   0.09439  -0.1885  0.1408  0.5929  -3.6750   0.0000   0.3213
   4.600   2.0558   0.10020   0.09497  -0.1870  0.1375  0.5952  -3.7388   0.0000   0.3197
   4.800   2.0659   0.10085   0.09559  -0.1855  0.1332  0.5974  -3.8013   0.0000   0.3181
   5.000   2.0770   0.10145   0.09619  -0.1841  0.1295  0.5995  -3.8669   0.0000   0.3165
   5.200   2.0884   0.10203   0.09678  -0.1828  0.1260  0.6014  -3.9397   0.0000   0.3150
   5.400   2.0987   0.10272   0.09743  -0.1814  0.1218  0.6031  -4.0106   0.0000   0.3135
   5.600   2.1102   0.10337   0.09809  -0.1801  0.1186  0.6048  -4.0845   0.0000   0.3120
   5.800   2.1207   0.10396   0.09868  -0.1787  0.1157  0.6065  -4.1566   0.0000   0.3104
   6.000   2.1289   0.10457   0.09929  -0.1771  0.1126  0.6085  -4.2234   0.0000   0.3089
   6.200   2.1358   0.10535   0.10008  -0.1753  0.1096  0.6102  -4.2875   0.0000   0.3074
   6.400   2.1439   0.10604   0.10078  -0.1737  0.1070  0.6118  -4.3587   0.0000   0.3059
   6.600   2.1513   0.10678   0.10153  -0.1721  0.1034  0.6134  -4.4316   0.0000   0.3044
   6.800   2.1584   0.10757   0.10231  -0.1704  0.0999  0.6150  -4.5041   0.0000   0.3029
   7.000   2.1670   0.10827   0.10301  -0.1690  0.0971  0.6167  -4.5810   0.0000   0.3014
   7.200   2.1742   0.10911   0.10386  -0.1674  0.0938  0.6183  -4.6548   0.0000   0.3000
   7.400   2.1795   0.11020   0.10494  -0.1658  0.0908  0.6200  -4.7243   0.0000   0.2985
   7.600   2.1869   0.11116   0.10592  -0.1644  0.0881  0.6218  -4.7995   0.0000   0.2971
   7.800   2.1936   0.11222   0.10697  -0.1629  0.0847  0.6234  -4.8788   0.0000   0.2957
   8.000   2.2011   0.11326   0.10801  -0.1616  0.0819  0.6248  -4.9630   0.0000   0.2944
   8.200   2.2050   0.11421   0.10899  -0.1599  0.0794  0.6263  -5.0360   0.0000   0.2930
   8.400   2.2069   0.11536   0.11015  -0.1582  0.0765  0.6275  -5.1036   0.0000   0.2915
   8.600   2.2106   0.11635   0.11115  -0.1565  0.0740  0.6288  -5.1763   0.0000   0.2902
   8.800   2.2139   0.11739   0.11222  -0.1550  0.0714  0.6301  -5.2485   0.0000   0.2888
   9.000   2.2144   0.11877   0.11360  -0.1533  0.0687  0.6312  -5.3121   0.0000   0.2875
   9.200   2.2176   0.11987   0.11472  -0.1519  0.0665  0.6325  -5.3842   0.0000   0.2862
   9.400   2.2192   0.12118   0.11606  -0.1504  0.0641  0.6338  -5.4516   0.0000   0.2849
   9.600   2.2197   0.12261   0.11751  -0.1491  0.0616  0.6353  -5.5158   0.0000   0.2837
   9.800   2.2215   0.12400   0.11893  -0.1478  0.0598  0.6369  -5.5839   0.0000   0.2825
  10.000   2.2233   0.12544   0.12039  -0.1467  0.0577  0.6385  -5.6526   0.0000   0.2813
  10.200   2.2228   0.12717   0.12214  -0.1456  0.0555  0.6399  -5.7135   0.0000   0.2802
  10.400   2.2244   0.12868   0.12368  -0.1447  0.0539  0.6413  -5.7816   0.0000   0.2792
  10.600   2.2255   0.13026   0.12529  -0.1439  0.0521  0.6425  -5.8478   0.0000   0.2781
  10.800   2.2246   0.13208   0.12715  -0.1431  0.0504  0.6435  -5.9072   0.0000   0.2772
  11.000   2.2250   0.13366   0.12875  -0.1424  0.0490  0.6444  -5.9724   0.0000   0.2762
  11.200   2.2233   0.13520   0.13034  -0.1416  0.0478  0.6456  -6.0308   0.0000   0.2752
  11.400   2.2210   0.13681   0.13200  -0.1409  0.0464  0.6467  -6.0883   0.0000   0.2743
  11.600   2.2177   0.13856   0.13378  -0.1403  0.0450  0.6477  -6.1417   0.0000   0.2735
  11.800   2.2144   0.14032   0.13560  -0.1399  0.0439  0.6487  -6.1946   0.0000   0.2727
  12.000   2.2124   0.14194   0.13726  -0.1395  0.0428  0.6498  -6.2522   0.0000   0.2719
  12.200   2.2090   0.14376   0.13912  -0.1393  0.0416  0.6507  -6.3064   0.0000   0.2712
  12.400   2.2041   0.14578   0.14119  -0.1393  0.0405  0.6516  -6.3555   0.0000   0.2706
  12.600   2.2003   0.14767   0.14314  -0.1394  0.0394  0.6525  -6.4088   0.0000   0.2700
  12.800   2.1974   0.14950   0.14501  -0.1395  0.0385  0.6535  -6.4652   0.0000   0.2694
  13.000   2.1929   0.15154   0.14710  -0.1399  0.0375  0.6545  -6.5145   0.0000   0.2690
  13.200   2.1879   0.15366   0.14927  -0.1405  0.0364  0.6555  -6.5611   0.0000   0.2686
  13.400   2.1827   0.15585   0.15151  -0.1412  0.0354  0.6565  -6.6057   0.0000   0.2683
  13.600   2.1785   0.15794   0.15366  -0.1420  0.0346  0.6575  -6.6544   0.0000   0.2680
  13.800   2.1739   0.16011   0.15588  -0.1429  0.0337  0.6586  -6.7004   0.0000   0.2678
  14.000   2.1693   0.16231   0.15814  -0.1440  0.0328  0.6598  -6.7459   0.0000   0.2676
  14.200   2.1630   0.16477   0.16065  -0.1454  0.0320  0.6609  -6.7828   0.0000   0.2676
  14.400   2.1571   0.16725   0.16319  -0.1470  0.0312  0.6620  -6.8204   0.0000   0.2677
  14.600   2.1529   0.16954   0.16553  -0.1484  0.0305  0.6630  -6.8653   0.0000   0.2677
  14.800   2.1466   0.17169   0.16773  -0.1497  0.0298  0.6638  -6.8998   0.0000   0.2676
  15.000   2.1379   0.17413   0.17024  -0.1514  0.0291  0.6645  -6.9222   0.0000   0.2678
  15.200   2.1289   0.17664   0.17281  -0.1532  0.0284  0.6651  -6.9414   0.0000   0.2681
  15.400   2.1213   0.17896   0.17519  -0.1548  0.0277  0.6657  -6.9667   0.0000   0.2683
  15.600   2.1137   0.18131   0.17760  -0.1566  0.0272  0.6663  -6.9913   0.0000   0.2685
  15.800   2.1060   0.18369   0.18004  -0.1585  0.0266  0.6669  -7.0138   0.0000   0.2688
  16.000   2.0990   0.18596   0.18237  -0.1603  0.0260  0.6675  -7.0399   0.0000   0.2690
  16.200   2.0897   0.18859   0.18506  -0.1626  0.0254  0.6681  -7.0517   0.0000   0.2695
  16.400   2.0817   0.19104   0.18755  -0.1648  0.0248  0.6687  -7.0700   0.0000   0.2699
  16.600   2.0738   0.19350   0.19007  -0.1670  0.0243  0.6693  -7.0872   0.0000   0.2703
  16.800   2.0676   0.19570   0.19233  -0.1690  0.0238  0.6700  -7.1137   0.0000   0.2706
  17.000   2.0604   0.19808   0.19476  -0.1712  0.0233  0.6707  -7.1329   0.0000   0.2711
  17.200   2.0539   0.20035   0.19709  -0.1734  0.0227  0.6714  -7.1557   0.0000   0.2714
  17.400   2.0460   0.20287   0.19965  -0.1759  0.0222  0.6721  -7.1689   0.0000   0.2720
  17.600   2.0398   0.20514   0.20197  -0.1782  0.0217  0.6730  -7.1911   0.0000   0.2724
  17.800   2.0328   0.20757   0.20445  -0.1807  0.0213  0.6738  -7.2072   0.0000   0.2730
  18.000   2.0293   0.20949   0.20641  -0.1826  0.0208  0.6749  -7.2441   0.0000   0.2732
  18.200   2.0230   0.21186   0.20884  -0.1852  0.0204  0.6760  -7.2624   0.0000   0.2737
  18.400   2.0186   0.21397   0.21099  -0.1874  0.0199  0.6772  -7.2920   0.0000   0.2741
  18.600   2.0148   0.21602   0.21307  -0.1897  0.0194  0.6785  -7.3246   0.0000   0.2744
  18.800   2.0075   0.21862   0.21572  -0.1927  0.0190  0.6795  -7.3326   0.0000   0.2752
  19.000   2.0046   0.22057   0.21771  -0.1949  0.0186  0.6805  -7.3689   0.0000   0.2755
  19.200   2.0007   0.22269   0.21987  -0.1974  0.0182  0.6814  -7.3977   0.0000   0.2759
  19.400   1.9958   0.22475   0.22198  -0.1998  0.0179  0.6820  -7.4203   0.0000   0.2764
  19.600   1.9919   0.22646   0.22372  -0.2017  0.0175  0.6827  -7.4510   0.0000   0.2765
  19.800   1.9861   0.22848   0.22579  -0.2041  0.0172  0.6832  -7.4672   0.0000   0.2770
  20.000   1.9801   0.23052   0.22787  -0.2065  0.0168  0.6838  -7.4815   0.0000   0.2776
  20.200   1.9758   0.23228   0.22966  -0.2086  0.0165  0.6843  -7.5071   0.0000   0.2778
  20.400   1.9706   0.23419   0.23162  -0.2110  0.0162  0.6849  -7.5247   0.0000   0.2783
  20.600   1.9660   0.23598   0.23346  -0.2132  0.0159  0.6854  -7.5464   0.0000   0.2786
  20.800   1.9630   0.23750   0.23501  -0.2151  0.0156  0.6861  -7.5798   0.0000   0.2787
  21.000   1.9599   0.23900   0.23655  -0.2169  0.0153  0.6867  -7.6126   0.0000   0.2789
  21.200   1.9534   0.24111   0.23870  -0.2197  0.0150  0.6873  -7.6171   0.0000   0.2796
  21.400   1.9498   0.24273   0.24035  -0.2218  0.0147  0.6880  -7.6433   0.0000   0.2798


