xflr5 v6.47

 Calculated polar for: NACA24018_theta30_Ku4.5_Kl0.5_d0.35_delta13.38

 1 1 Reynolds number fixed          Mach number fixed         

 xtrf =   1.000 (top)        1.000 (bottom)
 Mach =   0.000     Re =     0.400 e 6     Ncrit =   5.000

  alpha     CL        CD       CDp       Cm    Top Xtr Bot Xtr   Cpmin    Chinge    XCp    
 ------- -------- --------- --------- -------- ------- ------- -------- --------- ---------
 -15.000  -0.3205   0.06821   0.06366  -0.1163  0.8004  0.0579  -3.7827   0.0000  -0.1555
 -14.800  -0.2919   0.06834   0.06380  -0.1186  0.7981  0.0591  -3.6478   0.0000  -0.2013
 -14.600  -0.2610   0.06862   0.06406  -0.1210  0.7968  0.0604  -3.5083   0.0000  -0.2619
 -14.400  -0.2305   0.06898   0.06438  -0.1232  0.7958  0.0618  -3.3746   0.0000  -0.3369
 -13.600  -0.1092   0.07068   0.06605  -0.1316  0.7884  0.0677  -2.8682   0.0000  -1.0480
 -13.400  -0.0731   0.07118   0.06658  -0.1344  0.7866  0.0696  -2.7292   0.0000  -1.7201
 -13.200  -0.0384   0.07170   0.06709  -0.1368  0.7854  0.0718  -2.5955   0.0000  -3.5524
 -13.000  -0.0088   0.07187   0.06723  -0.1384  0.7803  0.0739  -2.4778   0.0000  -16.4719
 -12.800   0.0257   0.07244   0.06783  -0.1410  0.7780  0.0761  -2.3511   0.0000   6.0498
 -12.600   0.0590   0.07295   0.06834  -0.1431  0.7766  0.0788  -2.2337   0.0000   2.8080
 -12.400   0.0940   0.07352   0.06891  -0.1454  0.7756  0.0816  -2.1199   0.0000   1.8755
 -12.000   0.1541   0.07445   0.06985  -0.1487  0.7688  0.0875  -1.9175   0.0000   1.2568
 -11.800   0.1914   0.07508   0.07051  -0.1514  0.7672  0.0912  -1.8025   0.0000   1.0720
 -11.600   0.2282   0.07547   0.07089  -0.1538  0.7658  0.0952  -1.6915   0.0000   0.9478
 -11.400   0.2615   0.07592   0.07136  -0.1558  0.7615  0.0994  -1.5885   0.0000   0.8649
 -11.200   0.2960   0.07630   0.07176  -0.1579  0.7582  0.1042  -1.4854   0.0000   0.7987
 -11.000   0.3325   0.07679   0.07225  -0.1602  0.7567  0.1098  -1.3799   0.0000   0.7440
 -10.800   0.3700   0.07744   0.07294  -0.1627  0.7557  0.1161  -1.2745   0.0000   0.6996
 -10.600   0.4069   0.07807   0.07359  -0.1651  0.7550  0.1232  -1.1748   0.0000   0.6637
 -10.400   0.4301   0.07905   0.07461  -0.1659  0.7500  0.1295  -1.1028   0.0000   0.6421
 -10.200   0.4657   0.07993   0.07552  -0.1683  0.7481  0.1385  -1.0120   0.0000   0.6162
 -10.000   0.5038   0.08076   0.07640  -0.1709  0.7467  0.1499  -0.9226   0.0000   0.5927
  -9.800   0.5439   0.08163   0.07732  -0.1738  0.7456  0.1638  -0.8332   0.0000   0.5719
  -9.600   0.5860   0.08257   0.07830  -0.1769  0.7447  0.1809  -0.8218   0.0000   0.5533
  -9.400   0.6132   0.08425   0.08007  -0.1784  0.7380  0.1976  -0.8488   0.0000   0.5414
  -9.200   0.6650   0.08613   0.08206  -0.1832  0.7359  0.2306  -0.8954   0.0000   0.5251
  -9.000   0.7077   0.08885   0.08492  -0.1871  0.7297  0.2685  -0.9347   0.0000   0.5131
  -8.800   0.7593   0.09171   0.08795  -0.1921  0.7238  0.3195  -0.9835   0.0000   0.5009
  -8.600   0.7588   0.09525   0.09160  -0.1904  0.6891  0.3354  -0.9886   0.0000   0.4981
  -8.400   0.7945   0.09622   0.09264  -0.1923  0.6810  0.3661  -1.0267   0.0000   0.4887
  -8.200   0.8275   0.09637   0.09282  -0.1936  0.6745  0.3860  -1.0636   0.0000   0.4801
  -8.000   0.8609   0.09621   0.09264  -0.1947  0.6657  0.4022  -1.1015   0.0000   0.4719
  -7.800   0.9069   0.09582   0.09219  -0.1974  0.6559  0.4182  -1.1507   0.0000   0.4631
  -7.400   0.9954   0.09220   0.08838  -0.2016  0.6309  0.4405  -1.2521   0.0000   0.4475
  -7.200   1.0303   0.08918   0.08517  -0.2023  0.6103  0.4470  -1.2967   0.0000   0.4411
  -7.000   1.0874   0.08928   0.08488  -0.2069  0.5646  0.4597  -1.3607   0.0000   0.4348
  -6.800   1.0924   0.08871   0.08416  -0.2042  0.5379  0.4620  -1.3767   0.0000   0.4312
  -6.600   1.0976   0.08852   0.08385  -0.2018  0.5153  0.4644  -1.3926   0.0000   0.4276
  -6.400   1.1062   0.08870   0.08391  -0.1998  0.4948  0.4673  -1.4116   0.0000   0.4241
  -6.000   1.1614   0.09203   0.08692  -0.2021  0.4494  0.4807  -1.4854   0.0000   0.4167
  -5.800   1.1675   0.09186   0.08670  -0.1998  0.4356  0.4818  -1.5034   0.0000   0.4135
  -5.600   1.1750   0.09179   0.08656  -0.1977  0.4236  0.4829  -1.5226   0.0000   0.4103
  -5.400   1.1837   0.09179   0.08650  -0.1958  0.4116  0.4842  -1.5430   0.0000   0.4071
  -5.200   1.1935   0.09182   0.08649  -0.1940  0.4016  0.4855  -1.5655   0.0000   0.4039
  -5.000   1.2041   0.09193   0.08654  -0.1924  0.3913  0.4869  -1.5890   0.0000   0.4009
  -4.800   1.2161   0.09212   0.08668  -0.1911  0.3824  0.4884  -1.6140   0.0000   0.3978
  -4.600   1.2305   0.09243   0.08695  -0.1900  0.3735  0.4903  -1.6414   0.0000   0.3948
  -4.200   1.2963   0.09587   0.09024  -0.1938  0.3544  0.5022  -1.7349   0.0000   0.3892
  -4.000   1.3059   0.09584   0.09017  -0.1920  0.3479  0.5029  -1.7578   0.0000   0.3864
  -3.800   1.3163   0.09587   0.09018  -0.1904  0.3423  0.5037  -1.7828   0.0000   0.3837
  -3.600   1.3275   0.09588   0.09018  -0.1888  0.3368  0.5045  -1.8100   0.0000   0.3810
  -3.400   1.3383   0.09589   0.09018  -0.1872  0.3314  0.5054  -1.8368   0.0000   0.3784
  -3.200   1.3487   0.09595   0.09020  -0.1856  0.3264  0.5063  -1.8633   0.0000   0.3758
  -3.000   1.3600   0.09602   0.09026  -0.1841  0.3219  0.5074  -1.8909   0.0000   0.3732
  -2.800   1.3725   0.09612   0.09037  -0.1828  0.3173  0.5085  -1.9198   0.0000   0.3707
  -2.600   1.3859   0.09635   0.09059  -0.1816  0.3125  0.5099  -1.9499   0.0000   0.3683
  -2.400   1.4002   0.09671   0.09092  -0.1807  0.3079  0.5115  -1.9812   0.0000   0.3660
  -2.000   1.4667   0.10014   0.09429  -0.1844  0.2973  0.5236  -2.0884   0.0000   0.3620
  -1.800   1.4765   0.10012   0.09427  -0.1827  0.2935  0.5243  -2.1162   0.0000   0.3597
  -1.600   1.4862   0.10016   0.09429  -0.1811  0.2896  0.5249  -2.1452   0.0000   0.3574
  -1.200   1.5069   0.10029   0.09442  -0.1779  0.2829  0.5263  -2.2053   0.0000   0.3530
  -1.000   1.5186   0.10039   0.09455  -0.1765  0.2795  0.5271  -2.2370   0.0000   0.3509
  -0.800   1.5303   0.10056   0.09473  -0.1752  0.2759  0.5279  -2.2690   0.0000   0.3488
  -0.600   1.5421   0.10079   0.09495  -0.1739  0.2725  0.5288  -2.3011   0.0000   0.3468
  -0.400   1.5538   0.10107   0.09522  -0.1726  0.2694  0.5298  -2.3333   0.0000   0.3447
  -0.200   1.5661   0.10138   0.09553  -0.1714  0.2664  0.5310  -2.3675   0.0000   0.3428
   0.200   1.5940   0.10212   0.09633  -0.1694  0.2601  0.5343  -2.4412   0.0000   0.3389
   0.400   1.6380   0.10489   0.09904  -0.1730  0.2542  0.5450  -2.5242   0.0000   0.3378
   0.600   1.6464   0.10511   0.09926  -0.1713  0.2511  0.5456  -2.5570   0.0000   0.3359
   0.800   1.6559   0.10529   0.09946  -0.1697  0.2484  0.5461  -2.5913   0.0000   0.3340
   1.000   1.6664   0.10545   0.09966  -0.1682  0.2458  0.5467  -2.6270   0.0000   0.3322
   1.200   1.6767   0.10565   0.09989  -0.1668  0.2430  0.5473  -2.6626   0.0000   0.3303
   1.400   1.6867   0.10590   0.10016  -0.1653  0.2401  0.5480  -2.6980   0.0000   0.3285
   1.600   1.6964   0.10621   0.10048  -0.1639  0.2371  0.5487  -2.7331   0.0000   0.3267
   1.800   1.7057   0.10659   0.10085  -0.1624  0.2341  0.5495  -2.7681   0.0000   0.3250
   2.000   1.7161   0.10691   0.10120  -0.1611  0.2315  0.5505  -2.8090   0.0000   0.3232
   2.200   1.7273   0.10721   0.10154  -0.1598  0.2287  0.5516  -2.8512   0.0000   0.3215
   2.400   1.7380   0.10757   0.10193  -0.1585  0.2256  0.5529  -2.8930   0.0000   0.3198
   2.600   1.7483   0.10807   0.10245  -0.1573  0.2224  0.5545  -2.9345   0.0000   0.3182
   2.800   1.7589   0.10874   0.10312  -0.1561  0.2193  0.5566  -2.9770   0.0000   0.3166
   3.000   1.7726   0.10963   0.10401  -0.1555  0.2163  0.5594  -3.0275   0.0000   0.3151
   3.200   1.8066   0.11166   0.10607  -0.1576  0.2125  0.5669  -3.1153   0.0000   0.3142
   3.400   1.8147   0.11201   0.10646  -0.1561  0.2097  0.5674  -3.1569   0.0000   0.3125
   3.600   1.8223   0.11242   0.10689  -0.1545  0.2067  0.5679  -3.1980   0.0000   0.3109
   3.800   1.8291   0.11292   0.10740  -0.1530  0.2037  0.5685  -3.2419   0.0000   0.3093
   4.000   1.8361   0.11342   0.10791  -0.1515  0.2010  0.5692  -3.2876   0.0000   0.3078
   4.200   1.8445   0.11378   0.10833  -0.1500  0.1983  0.5699  -3.3370   0.0000   0.3062
   4.400   1.8518   0.11425   0.10885  -0.1486  0.1956  0.5708  -3.3846   0.0000   0.3047
   4.600   1.8586   0.11481   0.10944  -0.1471  0.1927  0.5718  -3.4313   0.0000   0.3031
   4.800   1.8650   0.11545   0.11009  -0.1457  0.1899  0.5729  -3.4780   0.0000   0.3016
   5.000   1.8711   0.11619   0.11084  -0.1443  0.1872  0.5742  -3.5287   0.0000   0.3002
   5.200   1.8806   0.11675   0.11146  -0.1432  0.1845  0.5757  -3.5873   0.0000   0.2988
   5.400   1.8899   0.11750   0.11225  -0.1422  0.1815  0.5774  -3.6461   0.0000   0.2974
   5.600   1.8991   0.11847   0.11326  -0.1413  0.1783  0.5795  -3.7074   0.0000   0.2961
   5.800   1.9096   0.11975   0.11454  -0.1408  0.1750  0.5823  -3.7746   0.0000   0.2948
   6.000   1.9328   0.12171   0.11653  -0.1419  0.1710  0.5881  -3.8750   0.0000   0.2940
   6.200   1.9381   0.12231   0.11718  -0.1405  0.1680  0.5886  -3.9313   0.0000   0.2926
   6.400   1.9415   0.12309   0.11799  -0.1391  0.1651  0.5891  -3.9835   0.0000   0.2912
   6.600   1.9440   0.12397   0.11889  -0.1377  0.1623  0.5897  -4.0333   0.0000   0.2898
   6.800   1.9469   0.12480   0.11976  -0.1363  0.1598  0.5904  -4.0853   0.0000   0.2885
   7.000   1.9514   0.12551   0.12053  -0.1350  0.1571  0.5912  -4.1464   0.0000   0.2872
   7.200   1.9548   0.12638   0.12146  -0.1338  0.1541  0.5921  -4.2049   0.0000   0.2859
   7.400   1.9574   0.12740   0.12250  -0.1327  0.1511  0.5930  -4.2614   0.0000   0.2847
   7.800   1.9636   0.12954   0.12472  -0.1307  0.1456  0.5950  -4.3777   0.0000   0.2823
   8.000   1.9673   0.13065   0.12589  -0.1299  0.1426  0.5962  -4.4377   0.0000   0.2812
   8.200   1.9702   0.13191   0.12718  -0.1292  0.1397  0.5974  -4.4956   0.0000   0.2801
   8.400   1.9713   0.13342   0.12871  -0.1286  0.1369  0.5988  -4.5526   0.0000   0.2792
   8.600   1.9770   0.13456   0.12993  -0.1281  0.1340  0.6005  -4.6236   0.0000   0.2781
   8.800   1.9814   0.13604   0.13145  -0.1279  0.1307  0.6025  -4.6912   0.0000   0.2772
   9.000   1.9883   0.13805   0.13349  -0.1284  0.1273  0.6061  -4.7673   0.0000   0.2766
   9.200   1.9954   0.13993   0.13541  -0.1289  0.1242  0.6093  -4.8442   0.0000   0.2758
   9.400   1.9956   0.14107   0.13661  -0.1282  0.1215  0.6098  -4.8977   0.0000   0.2749
   9.600   1.9937   0.14247   0.13806  -0.1278  0.1188  0.6103  -4.9445   0.0000   0.2740
   9.800   1.9909   0.14399   0.13962  -0.1275  0.1164  0.6109  -4.9879   0.0000   0.2733
  10.000   1.9899   0.14534   0.14103  -0.1272  0.1140  0.6115  -5.0370   0.0000   0.2725
  10.200   1.9895   0.14667   0.14242  -0.1269  0.1112  0.6121  -5.0879   0.0000   0.2717
  10.400   1.9865   0.14833   0.14412  -0.1270  0.1085  0.6128  -5.1299   0.0000   0.2711
  10.600   1.9827   0.15011   0.14595  -0.1273  0.1060  0.6134  -5.1682   0.0000   0.2706
  10.800   1.9818   0.15159   0.14749  -0.1274  0.1034  0.6142  -5.2163   0.0000   0.2700
  11.000   1.9794   0.15326   0.14922  -0.1278  0.1007  0.6150  -5.2586   0.0000   0.2695
  11.200   1.9750   0.15519   0.15119  -0.1285  0.0982  0.6158  -5.2932   0.0000   0.2692
  11.400   1.9722   0.15696   0.15303  -0.1291  0.0959  0.6167  -5.3329   0.0000   0.2688
  11.600   1.9703   0.15864   0.15476  -0.1298  0.0933  0.6177  -5.3773   0.0000   0.2685
  11.800   1.9661   0.16064   0.15682  -0.1308  0.0909  0.6187  -5.4141   0.0000   0.2683
  12.000   1.9617   0.16270   0.15892  -0.1320  0.0887  0.6197  -5.4493   0.0000   0.2682
  12.200   1.9599   0.16452   0.16081  -0.1331  0.0863  0.6210  -5.4948   0.0000   0.2680
  12.400   1.9565   0.16659   0.16294  -0.1345  0.0839  0.6223  -5.5328   0.0000   0.2680
  12.600   1.9520   0.16890   0.16529  -0.1362  0.0817  0.6239  -5.5651   0.0000   0.2682
  12.800   1.9531   0.17126   0.16772  -0.1384  0.0793  0.6274  -5.6190   0.0000   0.2683
  13.000   1.9527   0.17363   0.17013  -0.1405  0.0768  0.6299  -5.6666   0.0000   0.2685
  13.200   1.9453   0.17579   0.17234  -0.1422  0.0749  0.6303  -5.6849   0.0000   0.2687
  13.400   1.9400   0.17769   0.17430  -0.1437  0.0732  0.6307  -5.7118   0.0000   0.2688
  13.600   1.9353   0.17954   0.17621  -0.1451  0.0712  0.6311  -5.7410   0.0000   0.2689
  13.800   1.9292   0.18159   0.17832  -0.1468  0.0692  0.6315  -5.7658   0.0000   0.2691
  14.200   1.9179   0.18564   0.18247  -0.1505  0.0656  0.6325  -5.8177   0.0000   0.2696
  14.400   1.9127   0.18762   0.18451  -0.1523  0.0637  0.6330  -5.8448   0.0000   0.2698
  14.600   1.9059   0.18983   0.18675  -0.1545  0.0620  0.6335  -5.8631   0.0000   0.2703
  14.800   1.9009   0.19181   0.18878  -0.1564  0.0603  0.6341  -5.8895   0.0000   0.2706
  15.000   1.8972   0.19362   0.19065  -0.1582  0.0586  0.6347  -5.9222   0.0000   0.2708
  15.200   1.8915   0.19572   0.19279  -0.1604  0.0569  0.6354  -5.9431   0.0000   0.2712
  15.400   1.8860   0.19780   0.19489  -0.1626  0.0554  0.6360  -5.9645   0.0000   0.2716
  15.600   1.8827   0.19959   0.19675  -0.1644  0.0539  0.6368  -5.9972   0.0000   0.2718
  15.800   1.8791   0.20143   0.19863  -0.1664  0.0524  0.6376  -6.0279   0.0000   0.2721
  16.000   1.8746   0.20342   0.20065  -0.1687  0.0509  0.6385  -6.0525   0.0000   0.2725
  16.200   1.8705   0.20538   0.20265  -0.1709  0.0496  0.6394  -6.0780   0.0000   0.2729
  16.400   1.8685   0.20706   0.20439  -0.1728  0.0482  0.6405  -6.1153   0.0000   0.2730
  16.600   1.8653   0.20893   0.20630  -0.1750  0.0469  0.6418  -6.1450   0.0000   0.2734
  16.800   1.8612   0.21100   0.20840  -0.1775  0.0456  0.6432  -6.1675   0.0000   0.2739
  17.000   1.8602   0.21277   0.21021  -0.1797  0.0444  0.6453  -6.2077   0.0000   0.2741
  17.200   1.8639   0.21520   0.21268  -0.1831  0.0428  0.6496  -6.2651   0.0000   0.2747
  17.400   1.8592   0.21702   0.21454  -0.1854  0.0416  0.6500  -6.2846   0.0000   0.2751
  17.600   1.8552   0.21880   0.21634  -0.1875  0.0405  0.6503  -6.3085   0.0000   0.2754


