xflr5 v6.47

 Calculated polar for: NACA24018_theta30_Ku4.5_Kl0.5_d0.14_delta3.44

 1 1 Reynolds number fixed          Mach number fixed         

 xtrf =   1.000 (top)        1.000 (bottom)
 Mach =   0.000     Re =     2.000 e 6     Ncrit =   5.000

  alpha     CL        CD       CDp       Cm    Top Xtr Bot Xtr   Cpmin    Chinge    XCp    
 ------- -------- --------- --------- -------- ------- ------- -------- --------- ---------
 -15.000  -1.0022   0.02605   0.02138  -0.0898  0.9367  0.0261  -6.6538   0.0000   0.1372
 -14.800  -0.9898   0.02550   0.02080  -0.0891  0.9357  0.0263  -6.5354   0.0000   0.1371
 -14.600  -0.9754   0.02498   0.02026  -0.0887  0.9350  0.0265  -6.4101   0.0000   0.1365
 -14.400  -0.9600   0.02451   0.01977  -0.0884  0.9344  0.0267  -6.2821   0.0000   0.1357
 -14.200  -0.9635   0.02365   0.01888  -0.0847  0.9296  0.0269  -6.2229   0.0000   0.1403
 -14.000  -0.9461   0.02308   0.01831  -0.0847  0.9286  0.0274  -6.0895   0.0000   0.1390
 -13.800  -0.9257   0.02258   0.01779  -0.0851  0.9279  0.0278  -5.9489   0.0000   0.1368
 -13.600  -0.9031   0.02210   0.01732  -0.0858  0.9274  0.0283  -5.8039   0.0000   0.1339
 -13.400  -0.8789   0.02167   0.01688  -0.0868  0.9271  0.0287  -5.6551   0.0000   0.1303
 -13.200  -0.8521   0.02127   0.01648  -0.0881  0.9268  0.0292  -5.4992   0.0000   0.1257
 -13.000  -0.8512   0.02078   0.01598  -0.0848  0.9229  0.0294  -5.4292   0.0000   0.1299
 -12.800  -0.8289   0.02040   0.01559  -0.0853  0.9219  0.0298  -5.2899   0.0000   0.1267
 -12.600  -0.8049   0.02005   0.01523  -0.0860  0.9212  0.0301  -5.1468   0.0000   0.1229
 -12.400  -0.7799   0.01968   0.01487  -0.0870  0.9206  0.0306  -5.0038   0.0000   0.1183
 -12.200  -0.7541   0.01933   0.01452  -0.0880  0.9202  0.0312  -4.8633   0.0000   0.1131
 -12.000  -0.7273   0.01898   0.01418  -0.0892  0.9198  0.0318  -4.7215   0.0000   0.1071
 -11.800  -0.6989   0.01864   0.01384  -0.0907  0.9195  0.0325  -4.5763   0.0000   0.0999
 -11.400  -0.6618   0.01812   0.01333  -0.0899  0.9157  0.0335  -4.3475   0.0000   0.0940
 -11.200  -0.6383   0.01786   0.01307  -0.0904  0.9142  0.0340  -4.2204   0.0000   0.0881
 -11.000  -0.6121   0.01756   0.01278  -0.0915  0.9131  0.0349  -4.0876   0.0000   0.0803
 -10.800  -0.5842   0.01725   0.01248  -0.0928  0.9121  0.0358  -3.9512   0.0000   0.0707
 -10.400  -0.5733   0.01741   0.01266  -0.0872  0.8897  0.0367  -3.8052   0.0000   0.0780
 -10.200  -0.5464   0.01719   0.01243  -0.0882  0.8792  0.0374  -3.6750   0.0000   0.0686
 -10.000  -0.5107   0.01673   0.01198  -0.0907  0.8740  0.0383  -3.5229   0.0000   0.0518
  -9.800  -0.4694   0.01613   0.01138  -0.0943  0.8673  0.0397  -3.3588   0.0000   0.0278
  -9.600  -0.4159   0.01520   0.01042  -0.1001  0.8572  0.0413  -3.1670   0.0000  -0.0135
  -9.400  -0.3541   0.01406   0.00917  -0.1075  0.8334  0.0429  -2.9665   0.0000  -0.0790
  -9.200  -0.3259   0.01374   0.00871  -0.1088  0.7949  0.0442  -2.8499   0.0000  -0.1103
  -9.000  -0.3065   0.01371   0.00857  -0.1084  0.7666  0.0453  -2.7549   0.0000  -0.1306
  -8.800  -0.2859   0.01368   0.00845  -0.1082  0.7418  0.0463  -2.6580   0.0000  -0.1564
  -8.600  -0.2645   0.01366   0.00835  -0.1081  0.7174  0.0476  -2.5634   0.0000  -0.1880
  -8.400  -0.2420   0.01362   0.00824  -0.1083  0.6940  0.0492  -2.4690   0.0000  -0.2284
  -8.200  -0.2185   0.01358   0.00813  -0.1087  0.6721  0.0506  -2.3737   0.0000  -0.2801
  -8.000  -0.1943   0.01355   0.00803  -0.1091  0.6532  0.0518  -2.2783   0.0000  -0.3470
  -7.800  -0.1692   0.01350   0.00793  -0.1098  0.6339  0.0537  -2.1823   0.0000  -0.4379
  -7.600  -0.1440   0.01346   0.00783  -0.1105  0.6138  0.0557  -2.0873   0.0000  -0.5609
  -7.400  -0.1185   0.01343   0.00773  -0.1111  0.5944  0.0576  -1.9933   0.0000  -0.7385
  -7.200  -0.0921   0.01338   0.00765  -0.1120  0.5771  0.0600  -1.9001   0.0000  -1.0295
  -7.000  -0.0658   0.01335   0.00756  -0.1129  0.5597  0.0621  -1.8115   0.0000  -1.5483
  -6.800  -0.0391   0.01331   0.00747  -0.1138  0.5419  0.0647  -1.7232   0.0000  -2.7984
  -6.600  -0.0123   0.01329   0.00740  -0.1147  0.5255  0.0677  -1.6362   0.0000  -9.4919
  -6.400   0.0140   0.01328   0.00735  -0.1156  0.5115  0.0703  -1.5514   0.0000   8.8330
  -6.200   0.0408   0.01327   0.00731  -0.1165  0.4983  0.0737  -1.4692   0.0000   3.2185
  -6.000   0.0669   0.01328   0.00728  -0.1173  0.4847  0.0766  -1.3910   0.0000   2.0665
  -5.800   0.0940   0.01327   0.00725  -0.1183  0.4709  0.0811  -1.3126   0.0000   1.5515
  -5.600   0.1206   0.01329   0.00723  -0.1192  0.4557  0.0858  -1.2392   0.0000   1.2692
  -5.400   0.1475   0.01331   0.00721  -0.1201  0.4396  0.0914  -1.1671   0.0000   1.0886
  -5.200   0.1743   0.01333   0.00719  -0.1210  0.4245  0.0967  -1.0961   0.0000   0.9634
  -5.000   0.2008   0.01336   0.00719  -0.1219  0.4120  0.1018  -1.0267   0.0000   0.8724
  -4.800   0.2283   0.01338   0.00720  -0.1229  0.4012  0.1096  -0.9571   0.0000   0.8011
  -4.600   0.2559   0.01341   0.00723  -0.1240  0.3920  0.1185  -0.8884   0.0000   0.7449
  -4.400   0.2835   0.01345   0.00726  -0.1251  0.3819  0.1284  -0.8271   0.0000   0.6996
  -4.200   0.3119   0.01348   0.00731  -0.1263  0.3738  0.1414  -0.8330   0.0000   0.6619
  -4.000   0.3413   0.01352   0.00736  -0.1278  0.3642  0.1595  -0.8612   0.0000   0.6300
  -3.800   0.3712   0.01356   0.00744  -0.1293  0.3565  0.1799  -0.8900   0.0000   0.6029
  -3.600   0.4029   0.01362   0.00753  -0.1312  0.3467  0.2080  -0.9201   0.0000   0.5793
  -3.400   0.4428   0.01366   0.00771  -0.1349  0.3379  0.2649  -0.9584   0.0000   0.5574
  -3.200   0.4888   0.01373   0.00797  -0.1399  0.3283  0.3431  -1.0019   0.0000   0.5380
  -3.000   0.5219   0.01382   0.00811  -0.1420  0.3221  0.3741  -1.0366   0.0000   0.5234
  -2.800   0.5546   0.01393   0.00825  -0.1441  0.3159  0.4012  -1.0713   0.0000   0.5105
  -2.600   0.5888   0.01404   0.00843  -0.1465  0.3116  0.4325  -1.1074   0.0000   0.4989
  -2.400   0.6207   0.01416   0.00859  -0.1483  0.3074  0.4575  -1.1420   0.0000   0.4887
  -2.200   0.6502   0.01428   0.00872  -0.1497  0.3024  0.4737  -1.1751   0.0000   0.4795
  -2.000   0.6802   0.01442   0.00887  -0.1512  0.2971  0.4920  -1.2089   0.0000   0.4712
  -1.800   0.7103   0.01455   0.00903  -0.1527  0.2933  0.5091  -1.2433   0.0000   0.4635
  -1.600   0.7406   0.01470   0.00920  -0.1542  0.2886  0.5269  -1.2792   0.0000   0.4564
  -1.400   0.7708   0.01487   0.00937  -0.1558  0.2833  0.5438  -1.3162   0.0000   0.4498
  -1.200   0.7980   0.01501   0.00951  -0.1567  0.2799  0.5522  -1.3516   0.0000   0.4437
  -1.000   0.8238   0.01514   0.00964  -0.1573  0.2766  0.5585  -1.3860   0.0000   0.4380
  -0.800   0.8481   0.01527   0.00975  -0.1576  0.2732  0.5638  -1.4195   0.0000   0.4326
  -0.600   0.8743   0.01542   0.00989  -0.1583  0.2695  0.5695  -1.4547   0.0000   0.4275
  -0.400   0.8998   0.01556   0.01002  -0.1588  0.2660  0.5756  -1.4894   0.0000   0.4227
  -0.200   0.9241   0.01569   0.01015  -0.1591  0.2635  0.5810  -1.5244   0.0000   0.4180
   0.000   0.9501   0.01584   0.01030  -0.1597  0.2601  0.5867  -1.5617   0.0000   0.4137
   0.200   0.9752   0.01600   0.01044  -0.1602  0.2565  0.5925  -1.5984   0.0000   0.4096
   0.400   0.9990   0.01615   0.01058  -0.1604  0.2529  0.5973  -1.6341   0.0000   0.4056
   0.600   1.0235   0.01630   0.01072  -0.1608  0.2503  0.6019  -1.6706   0.0000   0.4018
   0.800   1.0490   0.01647   0.01089  -0.1613  0.2476  0.6074  -1.7083   0.0000   0.3983
   1.000   1.0731   0.01663   0.01105  -0.1616  0.2441  0.6127  -1.7460   0.0000   0.3948
   1.200   1.0963   0.01680   0.01120  -0.1617  0.2404  0.6175  -1.7843   0.0000   0.3914
   1.400   1.1222   0.01700   0.01139  -0.1623  0.2365  0.6236  -1.8263   0.0000   0.3883
   1.600   1.1468   0.01717   0.01157  -0.1627  0.2343  0.6299  -1.8675   0.0000   0.3852
   2.000   1.1953   0.01754   0.01194  -0.1633  0.2291  0.6405  -1.9498   0.0000   0.3794
   2.200   1.2189   0.01775   0.01213  -0.1635  0.2257  0.6457  -1.9906   0.0000   0.3767
   2.400   1.2414   0.01794   0.01231  -0.1634  0.2223  0.6501  -2.0311   0.0000   0.3739
   2.600   1.2643   0.01813   0.01250  -0.1635  0.2203  0.6540  -2.0735   0.0000   0.3713
   2.800   1.2887   0.01834   0.01272  -0.1638  0.2177  0.6592  -2.1177   0.0000   0.3688
   3.000   1.3117   0.01856   0.01294  -0.1639  0.2147  0.6646  -2.1607   0.0000   0.3664
   3.200   1.3333   0.01879   0.01315  -0.1637  0.2110  0.6694  -2.2027   0.0000   0.3639
   3.400   1.3569   0.01903   0.01339  -0.1639  0.2080  0.6745  -2.2486   0.0000   0.3616
   3.600   1.3799   0.01926   0.01363  -0.1639  0.2058  0.6795  -2.2942   0.0000   0.3594
   3.800   1.4016   0.01949   0.01386  -0.1638  0.2031  0.6840  -2.3394   0.0000   0.3571
   4.000   1.4223   0.01974   0.01410  -0.1634  0.1999  0.6878  -2.3860   0.0000   0.3549
   4.200   1.4446   0.02002   0.01437  -0.1634  0.1964  0.6922  -2.4354   0.0000   0.3528
   4.400   1.4665   0.02027   0.01463  -0.1632  0.1943  0.6965  -2.4848   0.0000   0.3507
   4.600   1.4875   0.02051   0.01488  -0.1629  0.1921  0.7003  -2.5334   0.0000   0.3486
   4.800   1.5079   0.02076   0.01513  -0.1625  0.1896  0.7037  -2.5814   0.0000   0.3466
   5.000   1.5283   0.02105   0.01541  -0.1621  0.1864  0.7071  -2.6296   0.0000   0.3446
   5.200   1.5490   0.02137   0.01572  -0.1618  0.1824  0.7113  -2.6785   0.0000   0.3426
   5.400   1.5698   0.02164   0.01600  -0.1615  0.1800  0.7157  -2.7301   0.0000   0.3407
   5.600   1.5896   0.02193   0.01629  -0.1610  0.1767  0.7196  -2.7846   0.0000   0.3388
   5.800   1.6084   0.02225   0.01660  -0.1603  0.1733  0.7226  -2.8380   0.0000   0.3369
   6.000   1.6278   0.02259   0.01693  -0.1598  0.1701  0.7261  -2.8926   0.0000   0.3350
   6.200   1.6478   0.02287   0.01724  -0.1593  0.1686  0.7297  -2.9484   0.0000   0.3333
   6.400   1.6671   0.02318   0.01755  -0.1587  0.1665  0.7332  -3.0035   0.0000   0.3315
   6.600   1.6854   0.02352   0.01790  -0.1580  0.1632  0.7365  -3.0576   0.0000   0.3297
   6.800   1.7020   0.02395   0.01830  -0.1570  0.1588  0.7393  -3.1094   0.0000   0.3278
   7.000   1.7195   0.02432   0.01868  -0.1561  0.1559  0.7419  -3.1678   0.0000   0.3260
   7.200   1.7366   0.02472   0.01908  -0.1552  0.1528  0.7449  -3.2298   0.0000   0.3243
   7.400   1.7528   0.02515   0.01951  -0.1541  0.1495  0.7477  -3.2907   0.0000   0.3225
   7.600   1.7690   0.02559   0.01995  -0.1530  0.1461  0.7506  -3.3517   0.0000   0.3207
   7.800   1.7859   0.02598   0.02035  -0.1521  0.1434  0.7534  -3.4145   0.0000   0.3191
   8.000   1.8018   0.02644   0.02080  -0.1510  0.1399  0.7559  -3.4818   0.0000   0.3174
   8.200   1.8166   0.02698   0.02131  -0.1498  0.1356  0.7579  -3.5485   0.0000   0.3156
   8.400   1.8321   0.02742   0.02177  -0.1486  0.1331  0.7605  -3.6171   0.0000   0.3139
   8.600   1.8460   0.02794   0.02230  -0.1472  0.1300  0.7630  -3.6832   0.0000   0.3122
   8.800   1.8591   0.02852   0.02289  -0.1457  0.1268  0.7655  -3.7496   0.0000   0.3105
   9.000   1.8729   0.02907   0.02344  -0.1444  0.1239  0.7679  -3.8236   0.0000   0.3088
   9.200   1.8868   0.02964   0.02401  -0.1431  0.1206  0.7703  -3.8985   0.0000   0.3072
   9.400   1.8988   0.03034   0.02470  -0.1415  0.1162  0.7723  -3.9696   0.0000   0.3055
   9.600   1.9116   0.03099   0.02535  -0.1401  0.1132  0.7741  -4.0447   0.0000   0.3039
   9.800   1.9238   0.03165   0.02603  -0.1385  0.1105  0.7759  -4.1224   0.0000   0.3022
  10.000   1.9339   0.03239   0.02677  -0.1367  0.1073  0.7780  -4.1955   0.0000   0.3005
  10.200   1.9446   0.03309   0.02748  -0.1350  0.1043  0.7800  -4.2705   0.0000   0.2989
  10.400   1.9545   0.03386   0.02827  -0.1332  0.1013  0.7820  -4.3447   0.0000   0.2972
  10.600   1.9622   0.03481   0.02921  -0.1312  0.0976  0.7838  -4.4160   0.0000   0.2955
  10.800   1.9724   0.03562   0.03004  -0.1296  0.0950  0.7856  -4.4938   0.0000   0.2939
  11.000   1.9816   0.03652   0.03096  -0.1279  0.0923  0.7875  -4.5698   0.0000   0.2923
  11.200   1.9890   0.03760   0.03203  -0.1260  0.0892  0.7892  -4.6415   0.0000   0.2907
  11.400   1.9980   0.03859   0.03304  -0.1244  0.0868  0.7906  -4.7187   0.0000   0.2892
  11.600   2.0061   0.03968   0.03415  -0.1227  0.0840  0.7919  -4.7977   0.0000   0.2877
  11.800   2.0103   0.04094   0.03541  -0.1206  0.0811  0.7935  -4.8680   0.0000   0.2861
  12.000   2.0158   0.04208   0.03658  -0.1187  0.0790  0.7951  -4.9433   0.0000   0.2845
  12.200   2.0205   0.04331   0.03785  -0.1168  0.0765  0.7967  -5.0167   0.0000   0.2830
  12.400   2.0223   0.04485   0.03940  -0.1147  0.0736  0.7981  -5.0820   0.0000   0.2814
  12.600   2.0260   0.04629   0.04087  -0.1129  0.0714  0.7995  -5.1528   0.0000   0.2800
  12.800   2.0290   0.04785   0.04246  -0.1112  0.0690  0.8010  -5.2216   0.0000   0.2786
  13.000   2.0300   0.04965   0.04428  -0.1094  0.0667  0.8024  -5.2849   0.0000   0.2772
  13.200   2.0336   0.05129   0.04596  -0.1080  0.0650  0.8039  -5.3558   0.0000   0.2760
  13.400   2.0360   0.05311   0.04781  -0.1066  0.0631  0.8051  -5.4232   0.0000   0.2747
  13.600   2.0361   0.05519   0.04993  -0.1053  0.0611  0.8062  -5.4838   0.0000   0.2736
  13.800   2.0364   0.05733   0.05210  -0.1041  0.0594  0.8071  -5.5447   0.0000   0.2725
  14.000   2.0378   0.05941   0.05423  -0.1031  0.0578  0.8080  -5.6088   0.0000   0.2714
  14.200   2.0365   0.06185   0.05670  -0.1021  0.0558  0.8088  -5.6655   0.0000   0.2705
  14.400   2.0312   0.06446   0.05937  -0.1010  0.0541  0.8099  -5.7099   0.0000   0.2695
  14.600   2.0285   0.06684   0.06180  -0.1000  0.0529  0.8110  -5.7626   0.0000   0.2685
  14.800   2.0246   0.06941   0.06443  -0.0992  0.0516  0.8120  -5.8108   0.0000   0.2677
  15.000   2.0188   0.07227   0.06735  -0.0985  0.0504  0.8129  -5.8522   0.0000   0.2669
  15.200   2.0114   0.07540   0.07054  -0.0981  0.0491  0.8137  -5.8873   0.0000   0.2663
  15.400   2.0057   0.07839   0.07360  -0.0978  0.0482  0.8145  -5.9277   0.0000   0.2657
  15.600   1.9999   0.08146   0.07673  -0.0977  0.0473  0.8152  -5.9671   0.0000   0.2653
  15.800   1.9926   0.08478   0.08011  -0.0977  0.0462  0.8160  -6.0004   0.0000   0.2649
  16.000   1.9835   0.08838   0.08378  -0.0980  0.0452  0.8168  -6.0263   0.0000   0.2647
  16.200   1.9728   0.09226   0.08774  -0.0986  0.0442  0.8175  -6.0450   0.0000   0.2646
  16.400   1.9636   0.09600   0.09154  -0.0993  0.0434  0.8182  -6.0681   0.0000   0.2646
  16.600   1.9547   0.09975   0.09537  -0.1002  0.0426  0.8189  -6.0909   0.0000   0.2646
  16.800   1.9446   0.10371   0.09940  -0.1013  0.0417  0.8196  -6.1107   0.0000   0.2648
  17.000   1.9332   0.10789   0.10366  -0.1027  0.0408  0.8202  -6.1255   0.0000   0.2652
  17.200   1.9208   0.11224   0.10808  -0.1043  0.0400  0.8208  -6.1344   0.0000   0.2657
  17.400   1.9090   0.11654   0.11246  -0.1061  0.0392  0.8214  -6.1437   0.0000   0.2663
  17.600   1.8996   0.12051   0.11650  -0.1078  0.0386  0.8220  -6.1619   0.0000   0.2669
  17.800   1.8896   0.12458   0.12064  -0.1098  0.0379  0.8226  -6.1763   0.0000   0.2675
  18.000   1.8793   0.12874   0.12487  -0.1119  0.0372  0.8231  -6.1874   0.0000   0.2683
  18.200   1.8687   0.13298   0.12918  -0.1142  0.0364  0.8237  -6.1949   0.0000   0.2692
  18.400   1.8577   0.13729   0.13355  -0.1167  0.0357  0.8242  -6.1993   0.0000   0.2702
  18.600   1.8485   0.14136   0.13768  -0.1192  0.0350  0.8247  -6.2099   0.0000   0.2712
  18.800   1.8385   0.14522   0.14161  -0.1215  0.0345  0.8254  -6.2165   0.0000   0.2721
  19.000   1.8285   0.14905   0.14551  -0.1238  0.0339  0.8261  -6.2215   0.0000   0.2730
  19.200   1.8206   0.15252   0.14903  -0.1259  0.0332  0.8267  -6.2363   0.0000   0.2738
  19.400   1.8102   0.15643   0.15301  -0.1285  0.0326  0.8273  -6.2363   0.0000   0.2749
  19.600   1.7997   0.16036   0.15700  -0.1312  0.0319  0.8279  -6.2344   0.0000   0.2762
  19.800   1.7926   0.16375   0.16043  -0.1335  0.0313  0.8285  -6.2485   0.0000   0.2770
  20.000   1.7848   0.16729   0.16403  -0.1360  0.0308  0.8291  -6.2575   0.0000   0.2781
  20.200   1.7804   0.17024   0.16703  -0.1381  0.0302  0.8298  -6.2841   0.0000   0.2788
  20.400   1.7726   0.17382   0.17067  -0.1409  0.0296  0.8305  -6.2899   0.0000   0.2799
  20.600   1.7675   0.17693   0.17381  -0.1432  0.0289  0.8312  -6.3106   0.0000   0.2808
  20.800   1.7595   0.18064   0.17757  -0.1463  0.0282  0.8319  -6.3118   0.0000   0.2822
  21.000   1.7559   0.18361   0.18059  -0.1487  0.0276  0.8327  -6.3373   0.0000   0.2830
  21.200   1.7522   0.18663   0.18365  -0.1512  0.0271  0.8335  -6.3613   0.0000   0.2839
  21.400   1.7482   0.18974   0.18680  -0.1539  0.0265  0.8342  -6.3819   0.0000   0.2849
  21.600   1.7460   0.19253   0.18962  -0.1563  0.0258  0.8349  -6.4130   0.0000   0.2857
  21.800   1.7399   0.19605   0.19318  -0.1595  0.0252  0.8355  -6.4182   0.0000   0.2871
  22.000   1.7372   0.19898   0.19614  -0.1622  0.0246  0.8362  -6.4435   0.0000   0.2880
  22.200   1.7360   0.20165   0.19885  -0.1647  0.0242  0.8368  -6.4774   0.0000   0.2888
  22.400   1.7328   0.20472   0.20196  -0.1676  0.0238  0.8375  -6.4970   0.0000   0.2899
  22.600   1.7324   0.20729   0.20457  -0.1701  0.0233  0.8381  -6.5340   0.0000   0.2906
  22.800   1.7306   0.21014   0.20745  -0.1729  0.0228  0.8388  -6.5610   0.0000   0.2916
  23.000   1.7272   0.21331   0.21066  -0.1761  0.0223  0.8394  -6.5750   0.0000   0.2928
  23.200   1.7263   0.21600   0.21337  -0.1789  0.0218  0.8399  -6.6062   0.0000   0.2937
  23.400   1.7234   0.21863   0.21604  -0.1814  0.0214  0.8406  -6.6283   0.0000   0.2946
  23.600   1.7205   0.22115   0.21860  -0.1838  0.0211  0.8412  -6.6514   0.0000   0.2954
  23.800   1.7196   0.22328   0.22077  -0.1859  0.0207  0.8418  -6.6884   0.0000   0.2959
  24.000   1.7182   0.22553   0.22305  -0.1881  0.0203  0.8424  -6.7211   0.0000   0.2965
  24.200   1.7131   0.22854   0.22609  -0.1911  0.0199  0.8429  -6.7240   0.0000   0.2978
  24.400   1.7115   0.23083   0.22841  -0.1934  0.0195  0.8434  -6.7536   0.0000   0.2985
  24.600   1.7097   0.23319   0.23080  -0.1958  0.0191  0.8439  -6.7799   0.0000   0.2992
  24.800   1.7055   0.23601   0.23367  -0.1988  0.0188  0.8445  -6.7867   0.0000   0.3004
  25.000   1.7055   0.23803   0.23572  -0.2009  0.0185  0.8451  -6.8254   0.0000   0.3008


