xflr5 v6.47

 Calculated polar for: NACA24018_theta30_Ku4.5_Kl0.5_d0.21_delta5.84

 1 1 Reynolds number fixed          Mach number fixed         

 xtrf =   1.000 (top)        1.000 (bottom)
 Mach =   0.000     Re =     0.600 e 6     Ncrit =   5.000

  alpha     CL        CD       CDp       Cm    Top Xtr Bot Xtr   Cpmin    Chinge    XCp    
 ------- -------- --------- --------- -------- ------- ------- -------- --------- ---------
 -15.000  -0.8581   0.04219   0.03697  -0.0862  0.9162  0.0364  -5.8862   0.0000   0.1252
 -14.800  -0.8570   0.04122   0.03596  -0.0849  0.9148  0.0367  -5.8247   0.0000   0.1270
 -13.800  -0.7964   0.03694   0.03155  -0.0844  0.9022  0.0390  -5.3203   0.0000   0.1216
 -13.600  -0.7750   0.03635   0.03091  -0.0853  0.9006  0.0396  -5.1901   0.0000   0.1175
 -13.400  -0.7514   0.03580   0.03034  -0.0867  0.8996  0.0402  -5.0538   0.0000   0.1122
 -13.200  -0.7260   0.03531   0.02985  -0.0884  0.8990  0.0408  -4.9122   0.0000   0.1058
 -13.000  -0.7087   0.03453   0.02906  -0.0886  0.8944  0.0414  -4.7974   0.0000   0.1027
 -12.800  -0.6840   0.03408   0.02860  -0.0899  0.8931  0.0421  -4.6656   0.0000   0.0962
 -12.600  -0.6575   0.03370   0.02820  -0.0914  0.8922  0.0430  -4.5305   0.0000   0.0885
 -12.400  -0.6300   0.03338   0.02785  -0.0930  0.8915  0.0438  -4.3938   0.0000   0.0797
 -12.200  -0.6010   0.03306   0.02752  -0.0949  0.8910  0.0447  -4.2536   0.0000   0.0691
 -12.000  -0.5806   0.03254   0.02702  -0.0954  0.8872  0.0455  -4.1390   0.0000   0.0626
 -11.800  -0.5537   0.03223   0.02670  -0.0968  0.8857  0.0466  -4.0068   0.0000   0.0518
 -11.600  -0.5253   0.03197   0.02643  -0.0984  0.8847  0.0477  -3.8726   0.0000   0.0389
 -11.400  -0.4958   0.03173   0.02617  -0.1001  0.8839  0.0487  -3.7374   0.0000   0.0237
 -11.200  -0.4645   0.03148   0.02594  -0.1023  0.8833  0.0498  -3.5978   0.0000   0.0047
 -11.000  -0.4332   0.03128   0.02575  -0.1043  0.8828  0.0512  -3.4600   0.0000  -0.0166
 -10.800  -0.4104   0.03098   0.02544  -0.1049  0.8794  0.0524  -3.3470   0.0000  -0.0320
 -10.600  -0.3816   0.03076   0.02522  -0.1064  0.8776  0.0538  -3.2229   0.0000  -0.0563
 -10.400  -0.3508   0.03056   0.02505  -0.1083  0.8765  0.0553  -3.0971   0.0000  -0.0875
 -10.200  -0.3196   0.03039   0.02487  -0.1102  0.8756  0.0570  -2.9723   0.0000  -0.1252
 -10.000  -0.2872   0.03022   0.02469  -0.1122  0.8749  0.0586  -2.8470   0.0000  -0.1733
  -9.800  -0.2524   0.03000   0.02449  -0.1147  0.8742  0.0605  -2.7170   0.0000  -0.2400
  -9.600  -0.2296   0.02974   0.02425  -0.1152  0.8696  0.0623  -2.6168   0.0000  -0.2893
  -9.400  -0.1973   0.02948   0.02399  -0.1171  0.8675  0.0644  -2.4969   0.0000  -0.3859
  -9.200  -0.1622   0.02920   0.02373  -0.1196  0.8661  0.0670  -2.3774   0.0000  -0.5361
  -8.400  -0.0871   0.02981   0.02444  -0.1189  0.8278  0.0757  -2.0509   0.0000  -1.1930
  -8.200  -0.0578   0.02987   0.02453  -0.1203  0.8200  0.0788  -1.9522   0.0000  -1.9436
  -8.000  -0.0254   0.02975   0.02441  -0.1222  0.8147  0.0824  -1.8517   0.0000  -4.7963
  -7.800   0.0093   0.02960   0.02430  -0.1244  0.8087  0.0869  -1.7481   0.0000  14.2358
  -7.600   0.0465   0.02932   0.02403  -0.1270  0.8028  0.0918  -1.6421   0.0000   3.1026
  -7.400   0.0858   0.02894   0.02365  -0.1299  0.7967  0.0978  -1.5341   0.0000   1.8248
  -7.200   0.1309   0.02835   0.02308  -0.1337  0.7889  0.1055  -1.4184   0.0000   1.3098
  -7.000   0.1843   0.02738   0.02210  -0.1389  0.7781  0.1158  -1.2928   0.0000   1.0292
  -6.800   0.2471   0.02606   0.02072  -0.1458  0.7607  0.1298  -1.1615   0.0000   0.8576
  -6.600   0.3064   0.02489   0.01942  -0.1522  0.7294  0.1483  -1.0444   0.0000   0.7602
  -6.400   0.3429   0.02472   0.01910  -0.1549  0.6894  0.1658  -0.9620   0.0000   0.7128
  -6.200   0.3738   0.02498   0.01927  -0.1567  0.6556  0.1895  -0.8904   0.0000   0.6787
  -6.000   0.4100   0.02538   0.01967  -0.1597  0.6268  0.2278  -0.8244   0.0000   0.6473
  -5.800   0.4725   0.02628   0.02073  -0.1678  0.5937  0.3289  -0.8748   0.0000   0.6115
  -5.600   0.5201   0.02702   0.02150  -0.1729  0.5637  0.3893  -0.9161   0.0000   0.5876
  -5.400   0.5555   0.02756   0.02199  -0.1755  0.5384  0.4186  -0.9503   0.0000   0.5702
  -5.200   0.5881   0.02803   0.02240  -0.1775  0.5168  0.4406  -0.9834   0.0000   0.5553
  -5.000   0.6182   0.02845   0.02274  -0.1790  0.4968  0.4573  -1.0149   0.0000   0.5424
  -4.800   0.6460   0.02880   0.02302  -0.1800  0.4780  0.4711  -1.0452   0.0000   0.5309
  -4.600   0.6754   0.02919   0.02334  -0.1814  0.4607  0.4846  -1.0781   0.0000   0.5202
  -4.400   0.7051   0.02957   0.02368  -0.1827  0.4458  0.4990  -1.1113   0.0000   0.5104
  -4.200   0.7340   0.02995   0.02399  -0.1840  0.4312  0.5131  -1.1442   0.0000   0.5013
  -4.000   0.7635   0.03035   0.02433  -0.1853  0.4165  0.5273  -1.1778   0.0000   0.4929
  -3.800   0.7923   0.03072   0.02468  -0.1864  0.4039  0.5409  -1.2111   0.0000   0.4851
  -3.600   0.8199   0.03109   0.02498  -0.1874  0.3929  0.5510  -1.2437   0.0000   0.4779
  -3.400   0.8434   0.03133   0.02520  -0.1876  0.3833  0.5572  -1.2732   0.0000   0.4714
  -3.200   0.8670   0.03160   0.02541  -0.1878  0.3741  0.5622  -1.3030   0.0000   0.4652
  -3.000   0.8913   0.03187   0.02563  -0.1881  0.3653  0.5667  -1.3351   0.0000   0.4593
  -2.800   0.9146   0.03215   0.02584  -0.1882  0.3571  0.5708  -1.3676   0.0000   0.4537
  -2.600   0.9363   0.03236   0.02605  -0.1880  0.3508  0.5752  -1.3989   0.0000   0.4484
  -2.400   0.9590   0.03261   0.02628  -0.1880  0.3442  0.5799  -1.4312   0.0000   0.4433
  -2.200   0.9822   0.03290   0.02652  -0.1882  0.3382  0.5844  -1.4642   0.0000   0.4385
  -2.000   1.0067   0.03319   0.02679  -0.1885  0.3327  0.5885  -1.4984   0.0000   0.4338
  -1.800   1.0277   0.03342   0.02699  -0.1882  0.3269  0.5922  -1.5298   0.0000   0.4294
  -1.400   1.0701   0.03391   0.02745  -0.1877  0.3166  0.6008  -1.5934   0.0000   0.4211
  -1.200   1.0933   0.03421   0.02774  -0.1878  0.3115  0.6053  -1.6301   0.0000   0.4171
  -1.000   1.1174   0.03457   0.02805  -0.1881  0.3064  0.6093  -1.6679   0.0000   0.4134
  -0.800   1.1361   0.03478   0.02825  -0.1874  0.3024  0.6126  -1.7007   0.0000   0.4097
  -0.600   1.1557   0.03499   0.02848  -0.1868  0.2991  0.6162  -1.7345   0.0000   0.4061
  -0.400   1.1764   0.03526   0.02875  -0.1864  0.2954  0.6203  -1.7696   0.0000   0.4027
  -0.200   1.1984   0.03558   0.02905  -0.1863  0.2913  0.6246  -1.8061   0.0000   0.3994
   0.000   1.2217   0.03598   0.02941  -0.1865  0.2870  0.6286  -1.8441   0.0000   0.3962
   0.200   1.2410   0.03623   0.02967  -0.1859  0.2837  0.6319  -1.8783   0.0000   0.3931
   0.400   1.2586   0.03643   0.02989  -0.1850  0.2802  0.6350  -1.9110   0.0000   0.3900
   0.600   1.2774   0.03669   0.03015  -0.1843  0.2765  0.6387  -1.9457   0.0000   0.3870
   0.800   1.2974   0.03702   0.03046  -0.1838  0.2727  0.6426  -1.9827   0.0000   0.3841
   1.000   1.3190   0.03742   0.03084  -0.1837  0.2691  0.6464  -2.0224   0.0000   0.3814
   1.200   1.3430   0.03784   0.03126  -0.1840  0.2664  0.6499  -2.0672   0.0000   0.3788
   1.400   1.3581   0.03802   0.03147  -0.1826  0.2637  0.6525  -2.1022   0.0000   0.3760
   1.600   1.3737   0.03825   0.03173  -0.1814  0.2607  0.6553  -2.1381   0.0000   0.3733
   1.800   1.3902   0.03855   0.03203  -0.1803  0.2575  0.6584  -2.1751   0.0000   0.3707
   2.000   1.4079   0.03893   0.03239  -0.1795  0.2541  0.6618  -2.2137   0.0000   0.3682
   2.200   1.4285   0.03934   0.03281  -0.1792  0.2512  0.6654  -2.2558   0.0000   0.3658
   2.400   1.4517   0.03984   0.03332  -0.1793  0.2480  0.6687  -2.3011   0.0000   0.3636
   2.600   1.4678   0.04015   0.03365  -0.1782  0.2448  0.6713  -2.3383   0.0000   0.3612
   2.800   1.4803   0.04039   0.03390  -0.1765  0.2419  0.6737  -2.3720   0.0000   0.3587
   3.000   1.4936   0.04070   0.03421  -0.1749  0.2389  0.6763  -2.4078   0.0000   0.3563
   3.200   1.5090   0.04102   0.03455  -0.1737  0.2364  0.6790  -2.4461   0.0000   0.3539
   3.400   1.5266   0.04139   0.03495  -0.1729  0.2337  0.6817  -2.4888   0.0000   0.3518
   3.600   1.5461   0.04187   0.03544  -0.1724  0.2309  0.6847  -2.5347   0.0000   0.3497
   3.800   1.5680   0.04248   0.03605  -0.1724  0.2278  0.6879  -2.5855   0.0000   0.3478
   4.000   1.5850   0.04298   0.03655  -0.1715  0.2248  0.6905  -2.6310   0.0000   0.3458
   4.200   1.5948   0.04326   0.03684  -0.1694  0.2224  0.6923  -2.6675   0.0000   0.3435
   4.400   1.6061   0.04353   0.03716  -0.1676  0.2201  0.6941  -2.7063   0.0000   0.3412
   4.600   1.6180   0.04387   0.03754  -0.1658  0.2174  0.6960  -2.7469   0.0000   0.3391
   4.800   1.6306   0.04429   0.03798  -0.1642  0.2145  0.6981  -2.7903   0.0000   0.3370
   5.000   1.6446   0.04483   0.03852  -0.1629  0.2114  0.7005  -2.8368   0.0000   0.3350
   5.200   1.6601   0.04546   0.03915  -0.1619  0.2085  0.7031  -2.8857   0.0000   0.3331
   5.400   1.6798   0.04609   0.03981  -0.1616  0.2057  0.7059  -2.9413   0.0000   0.3314
   5.600   1.7027   0.04691   0.04064  -0.1618  0.2024  0.7087  -3.0019   0.0000   0.3299
   5.800   1.7127   0.04735   0.04111  -0.1599  0.1996  0.7103  -3.0473   0.0000   0.3279
   6.000   1.7192   0.04780   0.04158  -0.1575  0.1971  0.7116  -3.0881   0.0000   0.3258
   6.200   1.7263   0.04829   0.04210  -0.1551  0.1947  0.7129  -3.1298   0.0000   0.3237
   6.400   1.7357   0.04872   0.04257  -0.1531  0.1925  0.7143  -3.1755   0.0000   0.3217
   6.600   1.7461   0.04924   0.04313  -0.1513  0.1898  0.7157  -3.2231   0.0000   0.3198
   6.800   1.7567   0.04985   0.04376  -0.1496  0.1870  0.7172  -3.2714   0.0000   0.3180
   7.000   1.7668   0.05057   0.04450  -0.1480  0.1843  0.7188  -3.3197   0.0000   0.3161
   7.200   1.7772   0.05139   0.04534  -0.1464  0.1816  0.7207  -3.3756   0.0000   0.3144
   7.400   1.7912   0.05216   0.04615  -0.1453  0.1788  0.7229  -3.4386   0.0000   0.3127
   7.600   1.8077   0.05317   0.04718  -0.1448  0.1751  0.7255  -3.5072   0.0000   0.3113
   7.800   1.8285   0.05455   0.04856  -0.1450  0.1713  0.7284  -3.5870   0.0000   0.3101
   8.000   1.8328   0.05526   0.04931  -0.1426  0.1692  0.7292  -3.6337   0.0000   0.3082
   8.200   1.8381   0.05590   0.05000  -0.1402  0.1671  0.7301  -3.6844   0.0000   0.3063
   8.400   1.8433   0.05660   0.05075  -0.1380  0.1646  0.7309  -3.7371   0.0000   0.3045
   8.600   1.8480   0.05744   0.05162  -0.1357  0.1617  0.7319  -3.7889   0.0000   0.3027
   8.800   1.8510   0.05851   0.05271  -0.1334  0.1587  0.7328  -3.8403   0.0000   0.3009
   9.000   1.8565   0.05941   0.05365  -0.1314  0.1559  0.7338  -3.9002   0.0000   0.2992
   9.200   1.8617   0.06042   0.05470  -0.1294  0.1528  0.7348  -3.9598   0.0000   0.2975
   9.400   1.8662   0.06158   0.05590  -0.1275  0.1499  0.7357  -4.0181   0.0000   0.2959
   9.600   1.8697   0.06292   0.05727  -0.1256  0.1474  0.7368  -4.0742   0.0000   0.2943
   9.800   1.8756   0.06411   0.05851  -0.1240  0.1451  0.7379  -4.1361   0.0000   0.2928
  10.000   1.8816   0.06541   0.05986  -0.1225  0.1424  0.7394  -4.1984   0.0000   0.2914
  10.200   1.8872   0.06695   0.06145  -0.1212  0.1394  0.7410  -4.2605   0.0000   0.2900
  10.400   1.8928   0.06887   0.06338  -0.1202  0.1363  0.7429  -4.3225   0.0000   0.2888
  10.600   1.9076   0.07088   0.06544  -0.1205  0.1329  0.7458  -4.4088   0.0000   0.2879
  10.800   1.9151   0.07284   0.06743  -0.1199  0.1296  0.7474  -4.4775   0.0000   0.2869
  11.000   1.9132   0.07460   0.06925  -0.1181  0.1271  0.7479  -4.5241   0.0000   0.2855
  11.200   1.9124   0.07630   0.07100  -0.1165  0.1248  0.7484  -4.5738   0.0000   0.2842
  11.400   1.9121   0.07796   0.07271  -0.1149  0.1222  0.7489  -4.6262   0.0000   0.2829
  11.600   1.9099   0.07982   0.07463  -0.1134  0.1194  0.7494  -4.6733   0.0000   0.2817
  11.800   1.9053   0.08201   0.07686  -0.1120  0.1169  0.7499  -4.7127   0.0000   0.2806
  12.000   1.9031   0.08392   0.07884  -0.1108  0.1144  0.7505  -4.7590   0.0000   0.2794
  12.200   1.9002   0.08598   0.08096  -0.1097  0.1118  0.7511  -4.8028   0.0000   0.2784
  12.400   1.8957   0.08831   0.08334  -0.1087  0.1093  0.7517  -4.8423   0.0000   0.2775
  12.600   1.8909   0.09077   0.08586  -0.1080  0.1071  0.7523  -4.8808   0.0000   0.2767
  12.800   1.8882   0.09302   0.08818  -0.1074  0.1049  0.7529  -4.9260   0.0000   0.2760
  13.000   1.8845   0.09549   0.09071  -0.1071  0.1026  0.7535  -4.9671   0.0000   0.2753
  13.200   1.8794   0.09819   0.09347  -0.1069  0.1004  0.7541  -5.0029   0.0000   0.2748
  13.400   1.8746   0.10092   0.09626  -0.1069  0.0985  0.7548  -5.0391   0.0000   0.2744
  13.600   1.8715   0.10348   0.09889  -0.1071  0.0965  0.7556  -5.0801   0.0000   0.2739
  13.800   1.8667   0.10632   0.10180  -0.1075  0.0943  0.7563  -5.1148   0.0000   0.2737
  14.000   1.8602   0.10945   0.10500  -0.1081  0.0922  0.7572  -5.1424   0.0000   0.2736
  14.200   1.8553   0.11248   0.10809  -0.1090  0.0902  0.7582  -5.1746   0.0000   0.2736
  14.400   1.8517   0.11551   0.11119  -0.1100  0.0880  0.7594  -5.2103   0.0000   0.2736
  14.600   1.8470   0.11900   0.11473  -0.1116  0.0856  0.7609  -5.2405   0.0000   0.2740
  14.800   1.8455   0.12300   0.11880  -0.1142  0.0833  0.7631  -5.2816   0.0000   0.2747
  15.000   1.8476   0.12691   0.12277  -0.1172  0.0806  0.7653  -5.3344   0.0000   0.2755
  15.200   1.8379   0.13019   0.12611  -0.1185  0.0788  0.7656  -5.3457   0.0000   0.2758
  15.600   1.8204   0.13655   0.13260  -0.1213  0.0755  0.7662  -5.3721   0.0000   0.2767
  15.800   1.8126   0.13962   0.13575  -0.1228  0.0738  0.7665  -5.3872   0.0000   0.2771
  16.000   1.8029   0.14300   0.13918  -0.1246  0.0721  0.7668  -5.3935   0.0000   0.2778
  16.400   1.7870   0.14928   0.14558  -0.1282  0.0690  0.7674  -5.4167   0.0000   0.2790
  16.600   1.7794   0.15239   0.14876  -0.1301  0.0674  0.7678  -5.4281   0.0000   0.2797
  16.800   1.7711   0.15564   0.15206  -0.1322  0.0658  0.7681  -5.4349   0.0000   0.2805
  17.000   1.7623   0.15893   0.15540  -0.1344  0.0644  0.7686  -5.4395   0.0000   0.2814
  17.200   1.7567   0.16171   0.15825  -0.1362  0.0629  0.7690  -5.4587   0.0000   0.2820
  17.400   1.7511   0.16451   0.16109  -0.1381  0.0613  0.7696  -5.4769   0.0000   0.2826
  17.600   1.7433   0.16771   0.16433  -0.1404  0.0599  0.7701  -5.4829   0.0000   0.2836
  17.800   1.7372   0.17065   0.16732  -0.1426  0.0585  0.7707  -5.4978   0.0000   0.2844
  18.000   1.7330   0.17334   0.17007  -0.1446  0.0571  0.7713  -5.5211   0.0000   0.2850
  18.200   1.7287   0.17609   0.17286  -0.1468  0.0556  0.7720  -5.5433   0.0000   0.2858
  18.400   1.7228   0.17920   0.17601  -0.1494  0.0542  0.7727  -5.5549   0.0000   0.2868
  18.600   1.7193   0.18197   0.17882  -0.1517  0.0528  0.7734  -5.5782   0.0000   0.2876
  18.800   1.7175   0.18452   0.18142  -0.1539  0.0514  0.7742  -5.6097   0.0000   0.2883
  19.000   1.7135   0.18754   0.18447  -0.1567  0.0500  0.7750  -5.6271   0.0000   0.2893
  19.200   1.7102   0.19054   0.18749  -0.1595  0.0487  0.7759  -5.6465   0.0000   0.2904
  19.400   1.7101   0.19314   0.19014  -0.1621  0.0475  0.7770  -5.6825   0.0000   0.2911
  19.600   1.7101   0.19597   0.19302  -0.1650  0.0462  0.7783  -5.7164   0.0000   0.2920
  19.800   1.7133   0.19933   0.19640  -0.1690  0.0448  0.7805  -5.7599   0.0000   0.2933
  20.000   1.7160   0.20272   0.19983  -0.1730  0.0435  0.7824  -5.7994   0.0000   0.2946
  20.200   1.7134   0.20476   0.20192  -0.1747  0.0424  0.7827  -5.8265   0.0000   0.2950
  20.400   1.7103   0.20694   0.20413  -0.1766  0.0413  0.7831  -5.8492   0.0000   0.2956
  20.600   1.7052   0.20956   0.20677  -0.1791  0.0403  0.7834  -5.8574   0.0000   0.2965
  20.800   1.7029   0.21166   0.20891  -0.1810  0.0394  0.7837  -5.8830   0.0000   0.2970
  21.000   1.7014   0.21366   0.21094  -0.1829  0.0384  0.7841  -5.9130   0.0000   0.2974
  21.200   1.6982   0.21604   0.21336  -0.1852  0.0374  0.7844  -5.9298   0.0000   0.2982
  21.400   1.6955   0.21835   0.21569  -0.1875  0.0365  0.7848  -5.9488   0.0000   0.2990
  21.600   1.6937   0.22047   0.21784  -0.1897  0.0357  0.7852  -5.9739   0.0000   0.2995
  21.800   1.6924   0.22253   0.21995  -0.1917  0.0349  0.7857  -6.0055   0.0000   0.3001
  22.000   1.6908   0.22467   0.22213  -0.1940  0.0340  0.7861  -6.0344   0.0000   0.3007
  22.200   1.6892   0.22683   0.22430  -0.1962  0.0332  0.7866  -6.0627   0.0000   0.3013
  22.400   1.6868   0.22917   0.22666  -0.1988  0.0324  0.7871  -6.0837   0.0000   0.3021
  22.600   1.6863   0.23116   0.22869  -0.2009  0.0317  0.7877  -6.1181   0.0000   0.3026
  22.800   1.6861   0.23312   0.23069  -0.2031  0.0309  0.7882  -6.1539   0.0000   0.3031
  23.000   1.6856   0.23516   0.23276  -0.2054  0.0301  0.7889  -6.1868   0.0000   0.3036
  23.200   1.6839   0.23747   0.23509  -0.2081  0.0294  0.7895  -6.2087   0.0000   0.3045
  23.400   1.6832   0.23959   0.23724  -0.2105  0.0288  0.7903  -6.2378   0.0000   0.3051
  23.600   1.6843   0.24142   0.23911  -0.2127  0.0281  0.7913  -6.2800   0.0000   0.3054
  23.800   1.6851   0.24342   0.24114  -0.2151  0.0274  0.7923  -6.3179   0.0000   0.3059
  24.000   1.6851   0.24574   0.24350  -0.2180  0.0267  0.7934  -6.3456   0.0000   0.3068
  24.200   1.6864   0.24808   0.24585  -0.2211  0.0261  0.7948  -6.3801   0.0000   0.3076
  24.400   1.6906   0.25045   0.24824  -0.2245  0.0254  0.7964  -6.4304   0.0000   0.3083
  24.600   1.6965   0.25313   0.25097  -0.2285  0.0247  0.7982  -6.4840   0.0000   0.3092
  24.800   1.6952   0.25497   0.25285  -0.2306  0.0242  0.7985  -6.5091   0.0000   0.3097
  25.000   1.6942   0.25673   0.25463  -0.2328  0.0237  0.7988  -6.5365   0.0000   0.3101


