xflr5 v6.47

 Calculated polar for: NACA24018_theta30_Ku4.5_Kl0.5_d0.00_delta0.00

 1 1 Reynolds number fixed          Mach number fixed         

 xtrf =   1.000 (top)        1.000 (bottom)
 Mach =   0.000     Re =     0.200 e 6     Ncrit =   5.000

  alpha     CL        CD       CDp       Cm    Top Xtr Bot Xtr   Cpmin    Chinge    XCp    
 ------- -------- --------- --------- -------- ------- ------- -------- --------- ---------
 -15.000  -0.9239   0.05082   0.04412  -0.0755  1.0000  0.0388  -5.8599   0.0000   0.1429
 -14.800  -0.9250   0.04899   0.04222  -0.0752  1.0000  0.0391  -5.8181   0.0000   0.1439
 -14.600  -0.9260   0.04723   0.04037  -0.0747  1.0000  0.0395  -5.7756   0.0000   0.1449
 -14.400  -0.9267   0.04555   0.03859  -0.0740  1.0000  0.0399  -5.7322   0.0000   0.1462
 -14.200  -0.9270   0.04393   0.03687  -0.0732  1.0000  0.0403  -5.6879   0.0000   0.1475
 -14.000  -0.9270   0.04239   0.03521  -0.0722  1.0000  0.0407  -5.6425   0.0000   0.1490
 -13.800  -0.9266   0.04091   0.03361  -0.0711  1.0000  0.0411  -5.5959   0.0000   0.1506
 -13.600  -0.9257   0.03951   0.03207  -0.0698  1.0000  0.0416  -5.5479   0.0000   0.1524
 -13.400  -0.9226   0.03833   0.03081  -0.0685  1.0000  0.0420  -5.4865   0.0000   0.1539
 -13.200  -0.9175   0.03738   0.02987  -0.0672  1.0000  0.0423  -5.4091   0.0000   0.1553
 -13.000  -0.9127   0.03649   0.02896  -0.0658  1.0000  0.0427  -5.3332   0.0000   0.1568
 -12.800  -0.9082   0.03563   0.02808  -0.0643  1.0000  0.0431  -5.2584   0.0000   0.1585
 -12.600  -0.9039   0.03480   0.02722  -0.0626  1.0000  0.0435  -5.1856   0.0000   0.1604
 -12.400  -0.8995   0.03399   0.02637  -0.0609  1.0000  0.0441  -5.1168   0.0000   0.1624
 -12.200  -0.8953   0.03320   0.02553  -0.0590  1.0000  0.0446  -5.0494   0.0000   0.1645
 -12.000  -0.8909   0.03244   0.02469  -0.0570  1.0000  0.0452  -4.9832   0.0000   0.1668
 -11.800  -0.8865   0.03170   0.02386  -0.0548  1.0000  0.0459  -4.9184   0.0000   0.1692
 -11.600  -0.8822   0.03098   0.02305  -0.0526  1.0000  0.0465  -4.8551   0.0000   0.1718
 -11.400  -0.8778   0.03035   0.02242  -0.0503  1.0000  0.0469  -4.7845   0.0000   0.1744
 -11.200  -0.8742   0.02980   0.02188  -0.0478  1.0000  0.0474  -4.7144   0.0000   0.1773
 -11.000  -0.8713   0.02930   0.02138  -0.0452  1.0000  0.0478  -4.6470   0.0000   0.1806
 -10.800  -0.8692   0.02883   0.02090  -0.0423  1.0000  0.0483  -4.5825   0.0000   0.1841
 -10.600  -0.8678   0.02839   0.02044  -0.0392  1.0000  0.0489  -4.5209   0.0000   0.1879
 -10.400  -0.8674   0.02799   0.02001  -0.0359  1.0000  0.0495  -4.4625   0.0000   0.1921
 -10.200  -0.8679   0.02761   0.01960  -0.0323  1.0000  0.0501  -4.4074   0.0000   0.1965
 -10.000  -0.8433   0.02694   0.01883  -0.0335  0.9970  0.0514  -4.2860   0.0000   0.1942
  -9.800  -0.8197   0.02628   0.01816  -0.0344  0.9935  0.0524  -4.1644   0.0000   0.1920
  -9.600  -0.7962   0.02570   0.01759  -0.0354  0.9897  0.0534  -4.0456   0.0000   0.1897
  -9.400  -0.7722   0.02513   0.01701  -0.0363  0.9859  0.0546  -3.9289   0.0000   0.1871
  -9.200  -0.7489   0.02457   0.01641  -0.0371  0.9815  0.0560  -3.8170   0.0000   0.1848
  -9.000  -0.7237   0.02402   0.01578  -0.0381  0.9778  0.0576  -3.7038   0.0000   0.1817
  -8.800  -0.7023   0.02345   0.01525  -0.0385  0.9724  0.0587  -3.5949   0.0000   0.1797
  -8.600  -0.6773   0.02293   0.01474  -0.0394  0.9685  0.0602  -3.4789   0.0000   0.1762
  -8.400  -0.6561   0.02243   0.01422  -0.0396  0.9624  0.0618  -3.3749   0.0000   0.1742
  -8.200  -0.6290   0.02191   0.01364  -0.0408  0.9590  0.0637  -3.2600   0.0000   0.1696
  -8.000  -0.6101   0.02140   0.01316  -0.0405  0.9517  0.0652  -3.1663   0.0000   0.1682
  -7.800  -0.5832   0.02088   0.01265  -0.0418  0.9478  0.0672  -3.0551   0.0000   0.1630
  -7.600  -0.5630   0.02045   0.01220  -0.0416  0.9399  0.0692  -2.9618   0.0000   0.1608
  -7.400  -0.5348   0.01991   0.01165  -0.0430  0.9357  0.0715  -2.8525   0.0000   0.1541
  -7.200  -0.5153   0.01948   0.01124  -0.0426  0.9269  0.0736  -2.7608   0.0000   0.1518
  -7.000  -0.4893   0.01902   0.01077  -0.0435  0.9207  0.0763  -2.6570   0.0000   0.1454
  -6.800  -0.4665   0.01860   0.01033  -0.0437  0.9119  0.0790  -2.5620   0.0000   0.1406
  -6.600  -0.4444   0.01816   0.00990  -0.0439  0.9024  0.0817  -2.4689   0.0000   0.1355
  -6.400  -0.4184   0.01774   0.00946  -0.0447  0.8935  0.0853  -2.3729   0.0000   0.1272
  -6.200  -0.3949   0.01733   0.00904  -0.0450  0.8825  0.0887  -2.2830   0.0000   0.1199
  -6.000  -0.3731   0.01696   0.00866  -0.0449  0.8700  0.0925  -2.1968   0.0000   0.1133
  -5.800  -0.3511   0.01664   0.00830  -0.0448  0.8571  0.0967  -2.1119   0.0000   0.1057
  -5.600  -0.3311   0.01629   0.00796  -0.0444  0.8436  0.1011  -2.0306   0.0000   0.0991
  -5.400  -0.3106   0.01603   0.00764  -0.0440  0.8301  0.1063  -1.9527   0.0000   0.0914
  -5.200  -0.2925   0.01573   0.00734  -0.0432  0.8164  0.1116  -1.8803   0.0000   0.0852
  -5.000  -0.2740   0.01549   0.00706  -0.0423  0.8022  0.1180  -1.8083   0.0000   0.0780
  -4.800  -0.2569   0.01524   0.00679  -0.0413  0.7878  0.1253  -1.7392   0.0000   0.0717
  -4.600  -0.2402   0.01501   0.00654  -0.0401  0.7733  0.1336  -1.6731   0.0000   0.0651
  -4.400  -0.2240   0.01479   0.00630  -0.0388  0.7585  0.1439  -1.6101   0.0000   0.0584
  -4.200  -0.2084   0.01456   0.00607  -0.0374  0.7438  0.1569  -1.5487   0.0000   0.0519
  -4.000  -0.1938   0.01431   0.00584  -0.0359  0.7293  0.1745  -1.4894   0.0000   0.0460
  -3.800  -0.1805   0.01401   0.00561  -0.0341  0.7148  0.2006  -1.4329   0.0000   0.0420
  -3.600  -0.1701   0.01359   0.00536  -0.0319  0.7006  0.2460  -1.3816   0.0000   0.0436
  -3.400  -0.1636   0.01307   0.00515  -0.0289  0.6871  0.3226  -1.3387   0.0000   0.0547
  -3.200  -0.1548   0.01273   0.00502  -0.0262  0.6735  0.3876  -1.2923   0.0000   0.0621
  -3.000  -0.1429   0.01252   0.00492  -0.0240  0.6598  0.4321  -1.2416   0.0000   0.0634
  -2.800  -0.1293   0.01239   0.00484  -0.0221  0.6461  0.4664  -1.1888   0.0000   0.0603
  -2.400  -0.1003   0.01221   0.00473  -0.0186  0.6192  0.5214  -1.0837   0.0000   0.0446
  -2.200  -0.0854   0.01214   0.00469  -0.0169  0.6057  0.5473  -1.0331   0.0000   0.0315
  -2.000  -0.0702   0.01209   0.00466  -0.0152  0.5923  0.5719  -0.9824   0.0000   0.0108
  -1.800  -0.0545   0.01206   0.00464  -0.0136  0.5788  0.5941  -0.9321   0.0000  -0.0251
  -1.600  -0.0384   0.01205   0.00462  -0.0122  0.5654  0.6140  -0.8838   0.0000  -0.0969
  -1.400  -0.0220   0.01204   0.00461  -0.0107  0.5525  0.6336  -0.8357   0.0000  -0.2796
  -1.200  -0.0054   0.01204   0.00462  -0.0093  0.5398  0.6528  -0.7888   0.0000  -1.5933
  -1.000   0.0113   0.01206   0.00462  -0.0080  0.5275  0.6710  -0.7736   0.0000   0.9985
  -0.800   0.0285   0.01209   0.00464  -0.0067  0.5155  0.6893  -0.7940   0.0000   0.4947
  -0.600   0.0462   0.01211   0.00469  -0.0055  0.5037  0.7088  -0.8153   0.0000   0.3699
  -0.400   0.0638   0.01216   0.00474  -0.0042  0.4923  0.7282  -0.8372   0.0000   0.3142
  -0.200   0.0819   0.01223   0.00478  -0.0031  0.4811  0.7445  -0.8594   0.0000   0.2838
   0.000   0.1009   0.01231   0.00482  -0.0023  0.4702  0.7571  -0.8823   0.0000   0.2666
   0.200   0.1207   0.01237   0.00486  -0.0016  0.4593  0.7674  -0.9057   0.0000   0.2563
   0.400   0.1397   0.01245   0.00489  -0.0007  0.4494  0.7781  -0.9286   0.0000   0.2479
   0.600   0.1598   0.01255   0.00494  -0.0001  0.4399  0.7882  -0.9536   0.0000   0.2430
   0.800   0.1807   0.01265   0.00501   0.0003  0.4301  0.7979  -0.9792   0.0000   0.2400
   1.000   0.2006   0.01275   0.00507   0.0009  0.4213  0.8083  -1.0043   0.0000   0.2367
   1.200   0.2214   0.01288   0.00515   0.0014  0.4130  0.8184  -1.0301   0.0000   0.2349
   1.400   0.2440   0.01300   0.00525   0.0014  0.4047  0.8274  -1.0572   0.0000   0.2350
   1.600   0.2641   0.01315   0.00533   0.0020  0.3974  0.8373  -1.0826   0.0000   0.2330
   1.800   0.2879   0.01328   0.00545   0.0018  0.3896  0.8458  -1.1121   0.0000   0.2341
   2.000   0.3101   0.01345   0.00556   0.0019  0.3828  0.8543  -1.1408   0.0000   0.2341
   2.200   0.3324   0.01359   0.00567   0.0020  0.3761  0.8633  -1.1694   0.0000   0.2340
   2.400   0.3577   0.01379   0.00582   0.0015  0.3699  0.8702  -1.2009   0.0000   0.2359
   2.600   0.3781   0.01393   0.00593   0.0019  0.3640  0.8795  -1.2298   0.0000   0.2347
   2.800   0.4062   0.01415   0.00611   0.0008  0.3577  0.8848  -1.2649   0.0000   0.2378
   3.000   0.4262   0.01431   0.00623   0.0013  0.3527  0.8937  -1.2938   0.0000   0.2365
   3.200   0.4554   0.01453   0.00642  -0.0001  0.3469  0.8982  -1.3301   0.0000   0.2396
   3.400   0.4766   0.01472   0.00656   0.0002  0.3422  0.9061  -1.3606   0.0000   0.2390
   3.800   0.5298   0.01514   0.00693  -0.0016  0.3321  0.9161  -1.4333   0.0000   0.2421
   4.000   0.5518   0.01535   0.00709  -0.0016  0.3279  0.9225  -1.4662   0.0000   0.2418
   4.200   0.5810   0.01558   0.00730  -0.0030  0.3235  0.9259  -1.5051   0.0000   0.2440
   4.400   0.6044   0.01577   0.00749  -0.0033  0.3191  0.9319  -1.5397   0.0000   0.2441
   4.600   0.6302   0.01601   0.00768  -0.0041  0.3149  0.9361  -1.5782   0.0000   0.2450
   4.800   0.6578   0.01626   0.00789  -0.0053  0.3109  0.9395  -1.6183   0.0000   0.2463
   5.000   0.6778   0.01644   0.00808  -0.0048  0.3070  0.9463  -1.6516   0.0000   0.2453
   5.200   0.7070   0.01669   0.00831  -0.0064  0.3028  0.9487  -1.6936   0.0000   0.2470
   5.400   0.7334   0.01696   0.00852  -0.0074  0.2992  0.9523  -1.7344   0.0000   0.2479
   5.600   0.7547   0.01716   0.00874  -0.0073  0.2956  0.9582  -1.7710   0.0000   0.2473
   5.800   0.7836   0.01739   0.00898  -0.0088  0.2915  0.9607  -1.8160   0.0000   0.2487
   6.000   0.8094   0.01763   0.00920  -0.0098  0.2880  0.9645  -1.8596   0.0000   0.2493
   6.200   0.8317   0.01790   0.00941  -0.0100  0.2850  0.9694  -1.9001   0.0000   0.2491
   6.400   0.8597   0.01811   0.00966  -0.0114  0.2812  0.9721  -1.9461   0.0000   0.2501
   6.600   0.8845   0.01833   0.00990  -0.0121  0.2775  0.9762  -1.9893   0.0000   0.2504
   6.800   0.9093   0.01857   0.01013  -0.0130  0.2742  0.9798  -2.0336   0.0000   0.2507
   7.000   0.9353   0.01885   0.01036  -0.0140  0.2712  0.9830  -2.0808   0.0000   0.2512
   7.200   0.9595   0.01907   0.01063  -0.0147  0.2678  0.9869  -2.1259   0.0000   0.2514
   7.400   0.9866   0.01929   0.01088  -0.0161  0.2641  0.9896  -2.1764   0.0000   0.2521
   7.600   1.0124   0.01953   0.01112  -0.0172  0.2608  0.9928  -2.2264   0.0000   0.2525
   7.800   1.0374   0.01982   0.01136  -0.0181  0.2580  0.9958  -2.2758   0.0000   0.2528
   8.000   1.0640   0.02005   0.01165  -0.0194  0.2546  0.9987  -2.3273   0.0000   0.2533
   8.200   1.0815   0.02026   0.01190  -0.0189  0.2514  1.0000  -2.3700   0.0000   0.2522
   8.400   1.0877   0.02044   0.01210  -0.0161  0.2490  1.0000  -2.3995   0.0000   0.2493
   8.600   1.0931   0.02065   0.01229  -0.0132  0.2467  1.0000  -2.4283   0.0000   0.2463
   8.800   1.0967   0.02085   0.01247  -0.0100  0.2448  1.0000  -2.4548   0.0000   0.2429
   9.000   1.1003   0.02103   0.01269  -0.0067  0.2425  1.0000  -2.4809   0.0000   0.2396
   9.200   1.1041   0.02121   0.01292  -0.0035  0.2401  1.0000  -2.5084   0.0000   0.2364
   9.400   1.1084   0.02141   0.01315  -0.0004  0.2377  1.0000  -2.5386   0.0000   0.2333
   9.600   1.1131   0.02164   0.01340   0.0025  0.2355  1.0000  -2.5698   0.0000   0.2303
   9.800   1.1184   0.02190   0.01365   0.0053  0.2334  1.0000  -2.6033   0.0000   0.2275
  10.000   1.1246   0.02221   0.01392   0.0078  0.2314  1.0000  -2.6381   0.0000   0.2249
  10.200   1.1319   0.02249   0.01428   0.0102  0.2289  1.0000  -2.6738   0.0000   0.2226
  10.400   1.1392   0.02280   0.01464   0.0124  0.2263  1.0000  -2.7098   0.0000   0.2203
  10.600   1.1464   0.02314   0.01501   0.0146  0.2238  1.0000  -2.7458   0.0000   0.2181
  10.800   1.1536   0.02351   0.01538   0.0168  0.2215  1.0000  -2.7836   0.0000   0.2160
  11.000   1.1610   0.02391   0.01576   0.0188  0.2194  1.0000  -2.8257   0.0000   0.2140
  11.200   1.1691   0.02433   0.01623   0.0207  0.2170  1.0000  -2.8684   0.0000   0.2121
  11.400   1.1772   0.02476   0.01673   0.0225  0.2143  1.0000  -2.9111   0.0000   0.2103
  11.600   1.1849   0.02522   0.01724   0.0242  0.2118  1.0000  -2.9535   0.0000   0.2086
  11.800   1.1923   0.02572   0.01775   0.0260  0.2095  1.0000  -2.9956   0.0000   0.2069
  12.000   1.1996   0.02626   0.01828   0.0277  0.2073  1.0000  -3.0376   0.0000   0.2053
  12.200   1.2072   0.02682   0.01888   0.0292  0.2049  1.0000  -3.0799   0.0000   0.2037
  12.400   1.2147   0.02742   0.01957   0.0307  0.2022  1.0000  -3.1228   0.0000   0.2023
  12.600   1.2217   0.02806   0.02026   0.0322  0.1996  1.0000  -3.1680   0.0000   0.2008
  12.800   1.2280   0.02874   0.02096   0.0336  0.1971  1.0000  -3.2140   0.0000   0.1994
  13.000   1.2342   0.02946   0.02167   0.0350  0.1949  1.0000  -3.2610   0.0000   0.1980
  13.200   1.2406   0.03024   0.02252   0.0362  0.1924  1.0000  -3.3085   0.0000   0.1967
  13.400   1.2466   0.03107   0.02344   0.0374  0.1896  1.0000  -3.3552   0.0000   0.1955
  13.600   1.2521   0.03196   0.02437   0.0386  0.1870  1.0000  -3.4009   0.0000   0.1943
  13.800   1.2570   0.03289   0.02533   0.0396  0.1847  1.0000  -3.4473   0.0000   0.1931
  14.000   1.2619   0.03387   0.02630   0.0407  0.1826  1.0000  -3.4942   0.0000   0.1920
  14.200   1.2665   0.03495   0.02748   0.0415  0.1800  1.0000  -3.5413   0.0000   0.1910
  14.400   1.2705   0.03611   0.02873   0.0424  0.1773  1.0000  -3.5869   0.0000   0.1900
  14.600   1.2737   0.03734   0.03001   0.0431  0.1747  1.0000  -3.6329   0.0000   0.1890
  14.800   1.2763   0.03864   0.03133   0.0438  0.1723  1.0000  -3.6776   0.0000   0.1881
  15.000   1.2787   0.04001   0.03272   0.0444  0.1700  1.0000  -3.7215   0.0000   0.1872
  15.200   1.2805   0.04155   0.03437   0.0448  0.1672  1.0000  -3.7625   0.0000   0.1864
  15.400   1.2815   0.04317   0.03607   0.0452  0.1645  1.0000  -3.8027   0.0000   0.1857
  15.600   1.2820   0.04487   0.03782   0.0455  0.1621  1.0000  -3.8424   0.0000   0.1850
  15.800   1.2825   0.04660   0.03955   0.0457  0.1599  1.0000  -3.8823   0.0000   0.1843
  16.000   1.2823   0.04853   0.04157   0.0458  0.1575  1.0000  -3.9184   0.0000   0.1837
  16.200   1.2810   0.05062   0.04377   0.0457  0.1549  1.0000  -3.9511   0.0000   0.1832
  16.400   1.2790   0.05281   0.04602   0.0456  0.1524  1.0000  -3.9837   0.0000   0.1827
  16.600   1.2768   0.05505   0.04830   0.0453  0.1502  1.0000  -4.0156   0.0000   0.1823
  16.800   1.2748   0.05731   0.05057   0.0451  0.1480  1.0000  -4.0477   0.0000   0.1819
  17.000   1.2696   0.06010   0.05350   0.0445  0.1453  1.0000  -4.0678   0.0000   0.1817
  17.200   1.2638   0.06299   0.05648   0.0439  0.1427  1.0000  -4.0859   0.0000   0.1815
  17.400   1.2584   0.06586   0.05939   0.0431  0.1402  1.0000  -4.1062   0.0000   0.1813
  17.600   1.2548   0.06850   0.06203   0.0425  0.1381  1.0000  -4.1329   0.0000   0.1812
  17.800   1.2461   0.07195   0.06559   0.0415  0.1356  1.0000  -4.1401   0.0000   0.1812
  18.000   1.2364   0.07559   0.06935   0.0403  0.1329  1.0000  -4.1428   0.0000   0.1813
  18.200   1.2278   0.07910   0.07292   0.0392  0.1304  1.0000  -4.1494   0.0000   0.1814
  18.400   1.2226   0.08214   0.07596   0.0382  0.1282  1.0000  -4.1674   0.0000   0.1815
  18.600   1.2128   0.08593   0.07984   0.0368  0.1259  1.0000  -4.1672   0.0000   0.1818
  18.800   1.1988   0.09041   0.08444   0.0351  0.1232  1.0000  -4.1509   0.0000   0.1823
  19.000   1.1883   0.09440   0.08849   0.0336  0.1207  1.0000  -4.1468   0.0000   0.1827
  19.200   1.1836   0.09752   0.09161   0.0324  0.1185  1.0000  -4.1647   0.0000   0.1831
  19.400   1.1737   0.10148   0.09564   0.0309  0.1162  1.0000  -4.1604   0.0000   0.1836
  19.600   1.1558   0.10677   0.10106   0.0286  0.1134  1.0000  -4.1225   0.0000   0.1845
  19.800   1.1457   0.11089   0.10523   0.0269  0.1109  1.0000  -4.1141   0.0000   0.1853
  20.000   1.1459   0.11334   0.10766   0.0258  0.1088  1.0000  -4.1493   0.0000   0.1857
  20.200   1.1330   0.11796   0.11236   0.0237  0.1063  1.0000  -4.1277   0.0000   0.1867
  20.400   1.1145   0.12359   0.11810   0.0211  0.1035  1.0000  -4.0786   0.0000   0.1881
  20.600   1.1097   0.12698   0.12151   0.0195  0.1011  1.0000  -4.0885   0.0000   0.1890
  20.800   1.1175   0.12822   0.12270   0.0189  0.0992  1.0000  -4.1548   0.0000   0.1891
  21.000   1.0946   0.13477   0.12939   0.0156  0.0964  1.0000  -4.0784   0.0000   0.1912
  21.200   1.0807   0.13984   0.13453   0.0130  0.0936  1.0000  -4.0404   0.0000   0.1929
  21.400   1.0850   0.14174   0.13641   0.0119  0.0917  1.0000  -4.0880   0.0000   0.1934
  21.600   1.0891   0.14365   0.13831   0.0109  0.0898  1.0000  -4.1361   0.0000   0.1938
  21.800   1.0620   0.15125   0.14605   0.0068  0.0866  1.0000  -4.0250   0.0000   0.1970
  22.000   1.0594   0.15446   0.14929   0.0049  0.0843  1.0000  -4.0363   0.0000   0.1982
  22.200   1.0716   0.15491   0.14969   0.0045  0.0829  1.0000  -4.1258   0.0000   0.1980
  22.400   1.0535   0.16105   0.15593   0.0010  0.0802  1.0000  -4.0505   0.0000   0.2008
  22.600   1.0403   0.16633   0.16128  -0.0021  0.0774  1.0000  -3.9979   0.0000   0.2033
  22.800   1.0485   0.16753   0.16247  -0.0030  0.0759  1.0000  -4.0646   0.0000   0.2035
  23.000   1.0645   0.16719   0.16208  -0.0031  0.0749  1.0000  -4.1769   0.0000   0.2029
  23.200   1.0231   0.17817   0.17323  -0.0095  0.0707  1.0000  -3.9478   0.0000   0.2090
  23.400   1.0292   0.17979   0.17484  -0.0107  0.0693  1.0000  -4.0007   0.0000   0.2095
  23.600   1.0426   0.17992   0.17495  -0.0111  0.0683  1.0000  -4.0991   0.0000   0.2091
  23.800   1.0045   0.19072   0.18588  -0.0175  0.0640  1.0000  -3.8619   0.0000   0.2157
  24.000   1.0118   0.19208   0.18724  -0.0186  0.0628  1.0000  -3.9226   0.0000   0.2161
  24.200   1.0244   0.19229   0.18743  -0.0192  0.0620  1.0000  -4.0209   0.0000   0.2157
  24.400   1.0399   0.19188   0.18700  -0.0193  0.0614  1.0000  -4.1393   0.0000   0.2149
  24.800   1.0075   0.20478   0.20003  -0.0275  0.0558  1.0000  -3.9200   0.0000   0.2229
  25.000   1.0218   0.20449   0.19972  -0.0279  0.0554  1.0000  -4.0356   0.0000   0.2221


