xflr5 v6.47

 Calculated polar for: NACA24018_theta30_Ku4.5_Kl0.5_d0.24_delta7.31

 1 1 Reynolds number fixed          Mach number fixed         

 xtrf =   1.000 (top)        1.000 (bottom)
 Mach =   0.000     Re =     1.200 e 6     Ncrit =   5.000

  alpha     CL        CD       CDp       Cm    Top Xtr Bot Xtr   Cpmin    Chinge    XCp    
 ------- -------- --------- --------- -------- ------- ------- -------- --------- ---------
 -15.000  -0.7292   0.03670   0.03215  -0.1086  0.8650  0.0346  -5.5248   0.0000   0.0746
 -14.800  -0.7069   0.03651   0.03195  -0.1097  0.8651  0.0351  -5.3844   0.0000   0.0684
 -14.600  -0.6836   0.03636   0.03180  -0.1107  0.8651  0.0357  -5.2420   0.0000   0.0614
 -14.400  -0.6600   0.03626   0.03168  -0.1118  0.8651  0.0362  -5.0992   0.0000   0.0538
 -14.200  -0.6352   0.03615   0.03157  -0.1130  0.8651  0.0367  -4.9547   0.0000   0.0450
 -14.000  -0.6072   0.03600   0.03143  -0.1148  0.8650  0.0375  -4.8066   0.0000   0.0335
 -13.200  -0.4960   0.03541   0.03083  -0.1209  0.8599  0.0403  -4.2319   0.0000  -0.0234
 -13.000  -0.4656   0.03525   0.03068  -0.1228  0.8586  0.0411  -4.0845   0.0000  -0.0443
 -12.800  -0.4332   0.03511   0.03054  -0.1250  0.8576  0.0422  -3.9330   0.0000  -0.0701
 -12.600  -0.3998   0.03495   0.03039  -0.1273  0.8568  0.0432  -3.7802   0.0000  -0.1014
 -12.400  -0.3649   0.03476   0.03020  -0.1297  0.8562  0.0442  -3.6259   0.0000  -0.1404
 -12.200  -0.3280   0.03455   0.02998  -0.1324  0.8556  0.0452  -3.4704   0.0000  -0.1912
 -12.000  -0.2898   0.03433   0.02978  -0.1354  0.8552  0.0465  -3.3183   0.0000  -0.2581
 -11.800  -0.2516   0.03410   0.02956  -0.1383  0.8548  0.0479  -3.1685   0.0000  -0.3452
 -11.600  -0.2374   0.03431   0.02978  -0.1375  0.8511  0.0488  -3.0821   0.0000  -0.3761
 -11.400  -0.2069   0.03425   0.02973  -0.1392  0.8496  0.0501  -2.9554   0.0000  -0.4747
 -11.200  -0.1715   0.03406   0.02955  -0.1417  0.8484  0.0519  -2.8184   0.0000  -0.6365
 -11.000  -0.1320   0.03366   0.02916  -0.1447  0.8472  0.0536  -2.6803   0.0000  -0.9210
 -10.800  -0.0883   0.03310   0.02860  -0.1483  0.8462  0.0555  -2.5352   0.0000  -1.5383
  -8.800   0.1418   0.03715   0.03290  -0.1532  0.7902  0.0767  -1.6400   0.0000   1.3754
  -8.600   0.1912   0.03635   0.03211  -0.1575  0.7827  0.0817  -1.5166   0.0000   1.1052
  -8.400   0.2516   0.03497   0.03069  -0.1634  0.7743  0.0876  -1.3780   0.0000   0.9223
  -8.200   0.3256   0.03297   0.02863  -0.1717  0.7611  0.0966  -1.2219   0.0000   0.7940
  -8.000   0.3842   0.03148   0.02681  -0.1776  0.7036  0.1049  -1.0956   0.0000   0.7258
  -7.800   0.3994   0.03221   0.02733  -0.1767  0.6555  0.1102  -1.0402   0.0000   0.7045
  -7.600   0.4195   0.03284   0.02782  -0.1766  0.6193  0.1166  -0.9822   0.0000   0.6818
  -7.400   0.4424   0.03333   0.02820  -0.1769  0.5886  0.1237  -0.9214   0.0000   0.6595
  -7.200   0.4678   0.03380   0.02857  -0.1777  0.5613  0.1333  -0.8579   0.0000   0.6383
  -7.000   0.4955   0.03424   0.02894  -0.1789  0.5370  0.1447  -0.8458   0.0000   0.6183
  -6.800   0.5248   0.03467   0.02931  -0.1803  0.5135  0.1595  -0.8744   0.0000   0.5999
  -6.600   0.5580   0.03515   0.02977  -0.1824  0.4927  0.1807  -0.9069   0.0000   0.5824
  -6.400   0.5938   0.03569   0.03030  -0.1850  0.4738  0.2094  -0.9415   0.0000   0.5662
  -6.200   0.6367   0.03645   0.03109  -0.1890  0.4528  0.2534  -0.9815   0.0000   0.5506
  -6.000   0.6985   0.03783   0.03257  -0.1964  0.4285  0.3396  -1.0353   0.0000   0.5341
  -5.800   0.7395   0.03864   0.03340  -0.1999  0.4129  0.3787  -1.0748   0.0000   0.5226
  -5.600   0.7726   0.03924   0.03397  -0.2019  0.4004  0.4011  -1.1090   0.0000   0.5130
  -5.200   0.8355   0.04034   0.03501  -0.2052  0.3760  0.4346  -1.1800   0.0000   0.4964
  -5.000   0.8631   0.04078   0.03541  -0.2061  0.3655  0.4464  -1.2137   0.0000   0.4892
  -4.800   0.8904   0.04121   0.03580  -0.2070  0.3558  0.4564  -1.2472   0.0000   0.4824
  -4.600   0.9183   0.04167   0.03623  -0.2080  0.3475  0.4677  -1.2815   0.0000   0.4760
  -4.400   0.9477   0.04220   0.03674  -0.2092  0.3392  0.4829  -1.3172   0.0000   0.4699
  -4.200   0.9787   0.04279   0.03731  -0.2108  0.3313  0.4993  -1.3545   0.0000   0.4641
  -4.000   1.0080   0.04334   0.03786  -0.2120  0.3259  0.5102  -1.3907   0.0000   0.4586
  -3.800   1.0316   0.04368   0.03816  -0.2121  0.3205  0.5156  -1.4229   0.0000   0.4536
  -3.600   1.0539   0.04397   0.03841  -0.2121  0.3150  0.5193  -1.4549   0.0000   0.4489
  -3.400   1.0779   0.04433   0.03877  -0.2123  0.3109  0.5237  -1.4886   0.0000   0.4443
  -3.200   1.1010   0.04467   0.03909  -0.2124  0.3060  0.5277  -1.5218   0.0000   0.4399
  -3.000   1.1236   0.04500   0.03939  -0.2124  0.3007  0.5320  -1.5546   0.0000   0.4357
  -2.800   1.1458   0.04531   0.03967  -0.2123  0.2962  0.5360  -1.5873   0.0000   0.4317
  -2.600   1.1680   0.04563   0.03998  -0.2123  0.2930  0.5394  -1.6211   0.0000   0.4278
  -2.400   1.1907   0.04597   0.04031  -0.2123  0.2890  0.5432  -1.6571   0.0000   0.4240
  -2.200   1.2128   0.04630   0.04062  -0.2122  0.2844  0.5470  -1.6933   0.0000   0.4204
  -2.000   1.2344   0.04662   0.04091  -0.2120  0.2798  0.5507  -1.7291   0.0000   0.4169
  -1.800   1.2561   0.04693   0.04122  -0.2118  0.2768  0.5541  -1.7652   0.0000   0.4134
  -1.600   1.2774   0.04725   0.04152  -0.2116  0.2732  0.5572  -1.8012   0.0000   0.4101
  -1.400   1.2992   0.04760   0.04186  -0.2114  0.2692  0.5611  -1.8379   0.0000   0.4069
  -1.200   1.3208   0.04795   0.04219  -0.2113  0.2654  0.5652  -1.8746   0.0000   0.4038
  -1.000   1.3422   0.04829   0.04253  -0.2110  0.2626  0.5691  -1.9128   0.0000   0.4008
  -0.800   1.3634   0.04863   0.04287  -0.2108  0.2600  0.5725  -1.9510   0.0000   0.3979
  -0.600   1.3844   0.04897   0.04319  -0.2105  0.2567  0.5756  -1.9892   0.0000   0.3950
  -0.400   1.4050   0.04931   0.04353  -0.2101  0.2530  0.5791  -2.0272   0.0000   0.3922
  -0.200   1.4254   0.04966   0.04386  -0.2097  0.2492  0.5828  -2.0665   0.0000   0.3895
   0.000   1.4458   0.05001   0.04421  -0.2093  0.2466  0.5865  -2.1062   0.0000   0.3869
   0.200   1.4661   0.05035   0.04456  -0.2089  0.2440  0.5899  -2.1462   0.0000   0.3843
   0.400   1.4862   0.05070   0.04490  -0.2085  0.2409  0.5929  -2.1861   0.0000   0.3817
   0.600   1.5061   0.05106   0.04525  -0.2080  0.2374  0.5955  -2.2277   0.0000   0.3793
   0.800   1.5252   0.05141   0.04559  -0.2074  0.2341  0.5986  -2.2702   0.0000   0.3768
   1.000   1.5443   0.05176   0.04594  -0.2068  0.2313  0.6021  -2.3130   0.0000   0.3745
   1.200   1.5636   0.05211   0.04630  -0.2062  0.2285  0.6056  -2.3564   0.0000   0.3721
   1.400   1.5829   0.05248   0.04667  -0.2056  0.2250  0.6089  -2.3998   0.0000   0.3698
   1.600   1.6018   0.05287   0.04705  -0.2050  0.2213  0.6118  -2.4432   0.0000   0.3676
   1.800   1.6209   0.05330   0.04745  -0.2044  0.2180  0.6144  -2.4869   0.0000   0.3654
   2.000   1.6390   0.05367   0.04783  -0.2036  0.2159  0.6174  -2.5296   0.0000   0.3632
   2.200   1.6565   0.05404   0.04823  -0.2028  0.2138  0.6205  -2.5716   0.0000   0.3611
   2.400   1.6738   0.05444   0.04864  -0.2019  0.2113  0.6234  -2.6137   0.0000   0.3590
   2.600   1.6911   0.05487   0.04908  -0.2010  0.2086  0.6263  -2.6562   0.0000   0.3569
   2.800   1.7085   0.05535   0.04954  -0.2002  0.2054  0.6291  -2.7013   0.0000   0.3549
   3.000   1.7264   0.05585   0.05004  -0.1994  0.2023  0.6320  -2.7504   0.0000   0.3529
   3.200   1.7450   0.05635   0.05054  -0.1988  0.1996  0.6344  -2.8008   0.0000   0.3509
   3.400   1.7603   0.05674   0.05095  -0.1976  0.1965  0.6370  -2.8468   0.0000   0.3489
   3.600   1.7754   0.05716   0.05136  -0.1964  0.1932  0.6394  -2.8961   0.0000   0.3470
   3.800   1.7905   0.05761   0.05181  -0.1952  0.1900  0.6418  -2.9458   0.0000   0.3450
   4.000   1.8066   0.05805   0.05227  -0.1942  0.1876  0.6445  -2.9975   0.0000   0.3431
   4.200   1.8231   0.05853   0.05277  -0.1932  0.1847  0.6473  -3.0500   0.0000   0.3413
   4.400   1.8395   0.05907   0.05330  -0.1922  0.1813  0.6499  -3.1032   0.0000   0.3395
   4.600   1.8556   0.05967   0.05388  -0.1913  0.1779  0.6521  -3.1599   0.0000   0.3377
   4.800   1.8717   0.06024   0.05446  -0.1903  0.1751  0.6540  -3.2168   0.0000   0.3359
   5.000   1.8850   0.06067   0.05491  -0.1888  0.1726  0.6560  -3.2693   0.0000   0.3341
   5.200   1.8975   0.06120   0.05546  -0.1873  0.1696  0.6581  -3.3207   0.0000   0.3322
   5.400   1.9094   0.06180   0.05607  -0.1857  0.1665  0.6604  -3.3732   0.0000   0.3304
   5.600   1.9216   0.06245   0.05672  -0.1842  0.1633  0.6626  -3.4288   0.0000   0.3286
   5.800   1.9355   0.06304   0.05733  -0.1829  0.1610  0.6650  -3.4909   0.0000   0.3269
   6.000   1.9492   0.06370   0.05800  -0.1816  0.1576  0.6671  -3.5568   0.0000   0.3252
   6.200   1.9623   0.06445   0.05875  -0.1803  0.1537  0.6691  -3.6240   0.0000   0.3235
   6.400   1.9762   0.06524   0.05954  -0.1791  0.1505  0.6710  -3.6955   0.0000   0.3219
   6.600   1.9909   0.06601   0.06032  -0.1780  0.1473  0.6730  -3.7692   0.0000   0.3203
   6.800   1.9994   0.06669   0.06101  -0.1761  0.1438  0.6747  -3.8299   0.0000   0.3185
   7.000   2.0068   0.06752   0.06185  -0.1740  0.1402  0.6764  -3.8886   0.0000   0.3168
   7.200   2.0163   0.06822   0.06258  -0.1722  0.1377  0.6781  -3.9521   0.0000   0.3151
   7.400   2.0259   0.06897   0.06335  -0.1705  0.1346  0.6797  -4.0205   0.0000   0.3134
   7.600   2.0348   0.06983   0.06421  -0.1687  0.1314  0.6815  -4.0904   0.0000   0.3118
   7.800   2.0439   0.07074   0.06513  -0.1670  0.1286  0.6834  -4.1612   0.0000   0.3101
   8.000   2.0536   0.07173   0.06614  -0.1654  0.1260  0.6854  -4.2342   0.0000   0.3085
   8.200   2.0630   0.07283   0.06726  -0.1639  0.1228  0.6873  -4.3071   0.0000   0.3070
   8.400   2.0715   0.07406   0.06849  -0.1623  0.1192  0.6890  -4.3829   0.0000   0.3054
   8.600   2.0822   0.07519   0.06964  -0.1610  0.1159  0.6905  -4.4679   0.0000   0.3039
   8.800   2.0896   0.07658   0.07103  -0.1593  0.1119  0.6919  -4.5447   0.0000   0.3024
   9.000   2.0923   0.07777   0.07224  -0.1571  0.1087  0.6931  -4.6083   0.0000   0.3008
   9.200   2.0972   0.07874   0.07325  -0.1551  0.1062  0.6944  -4.6779   0.0000   0.2992
   9.400   2.1003   0.07994   0.07448  -0.1530  0.1035  0.6957  -4.7432   0.0000   0.2976
   9.600   2.1025   0.08130   0.07586  -0.1509  0.1008  0.6969  -4.8060   0.0000   0.2961
   9.800   2.1063   0.08256   0.07715  -0.1490  0.0984  0.6982  -4.8735   0.0000   0.2946
  10.000   2.1089   0.08402   0.07864  -0.1471  0.0956  0.6994  -4.9382   0.0000   0.2931
  10.200   2.1102   0.08568   0.08032  -0.1453  0.0926  0.7006  -4.9992   0.0000   0.2917
  10.400   2.1130   0.08729   0.08197  -0.1437  0.0900  0.7019  -5.0645   0.0000   0.2903
  10.600   2.1151   0.08907   0.08378  -0.1422  0.0870  0.7032  -5.1282   0.0000   0.2890
  10.800   2.1154   0.09110   0.08583  -0.1407  0.0839  0.7045  -5.1867   0.0000   0.2878
  11.000   2.1187   0.09294   0.08771  -0.1395  0.0815  0.7061  -5.2536   0.0000   0.2866
  11.200   2.1205   0.09506   0.08986  -0.1385  0.0787  0.7077  -5.3228   0.0000   0.2855
  11.400   2.1212   0.09742   0.09224  -0.1376  0.0762  0.7091  -5.3892   0.0000   0.2844
  11.600   2.1247   0.09946   0.09433  -0.1369  0.0741  0.7104  -5.4646   0.0000   0.2834
  11.800   2.1221   0.10141   0.09633  -0.1356  0.0722  0.7113  -5.5187   0.0000   0.2823
  12.000   2.1180   0.10358   0.09855  -0.1345  0.0703  0.7120  -5.5675   0.0000   0.2813
  12.200   2.1147   0.10568   0.10069  -0.1335  0.0687  0.7127  -5.6186   0.0000   0.2804
  12.400   2.1124   0.10766   0.10273  -0.1326  0.0671  0.7135  -5.6729   0.0000   0.2795
  12.600   2.1084   0.10990   0.10503  -0.1319  0.0654  0.7142  -5.7208   0.0000   0.2786
  12.800   2.1031   0.11235   0.10753  -0.1314  0.0637  0.7149  -5.7632   0.0000   0.2779
  13.000   2.0985   0.11472   0.10995  -0.1310  0.0623  0.7157  -5.8080   0.0000   0.2773
  13.200   2.0949   0.11700   0.11229  -0.1308  0.0608  0.7165  -5.8552   0.0000   0.2766
  13.400   2.0898   0.11952   0.11487  -0.1307  0.0592  0.7174  -5.8966   0.0000   0.2761
  13.600   2.0832   0.12232   0.11773  -0.1310  0.0576  0.7184  -5.9317   0.0000   0.2758
  13.800   2.0782   0.12499   0.12046  -0.1314  0.0562  0.7194  -5.9716   0.0000   0.2755
  14.000   2.0733   0.12770   0.12323  -0.1320  0.0546  0.7204  -6.0112   0.0000   0.2752
  14.200   2.0669   0.13067   0.12626  -0.1329  0.0530  0.7214  -6.0438   0.0000   0.2751
  14.400   2.0593   0.13385   0.12950  -0.1341  0.0516  0.7224  -6.0708   0.0000   0.2752
  14.600   2.0551   0.13668   0.13239  -0.1352  0.0503  0.7234  -6.1098   0.0000   0.2752
  14.800   2.0500   0.13969   0.13547  -0.1366  0.0490  0.7245  -6.1448   0.0000   0.2753
  15.000   2.0436   0.14301   0.13884  -0.1383  0.0478  0.7256  -6.1728   0.0000   0.2756
  15.200   2.0366   0.14654   0.14243  -0.1404  0.0466  0.7267  -6.1962   0.0000   0.2761
  15.400   2.0332   0.14977   0.14572  -0.1425  0.0455  0.7280  -6.2342   0.0000   0.2765
  15.600   2.0267   0.15292   0.14894  -0.1444  0.0444  0.7289  -6.2587   0.0000   0.2769
  15.800   2.0175   0.15594   0.15203  -0.1461  0.0434  0.7295  -6.2715   0.0000   0.2773
  16.000   2.0073   0.15913   0.15529  -0.1480  0.0424  0.7300  -6.2783   0.0000   0.2778
  16.200   1.9972   0.16234   0.15857  -0.1500  0.0416  0.7305  -6.2843   0.0000   0.2785
  16.400   1.9888   0.16533   0.16162  -0.1519  0.0408  0.7311  -6.2980   0.0000   0.2790
  16.600   1.9809   0.16822   0.16457  -0.1538  0.0399  0.7316  -6.3155   0.0000   0.2795
  16.800   1.9716   0.17138   0.16780  -0.1561  0.0390  0.7321  -6.3241   0.0000   0.2802
  17.000   1.9616   0.17469   0.17117  -0.1586  0.0381  0.7325  -6.3276   0.0000   0.2811
  17.200   1.9543   0.17756   0.17409  -0.1607  0.0374  0.7330  -6.3446   0.0000   0.2817
  17.400   1.9467   0.18054   0.17714  -0.1630  0.0367  0.7336  -6.3595   0.0000   0.2824
  17.600   1.9410   0.18323   0.17987  -0.1651  0.0359  0.7342  -6.3841   0.0000   0.2829
  17.800   1.9332   0.18630   0.18301  -0.1677  0.0352  0.7348  -6.3954   0.0000   0.2838
  18.000   1.9270   0.18912   0.18587  -0.1701  0.0344  0.7354  -6.4145   0.0000   0.2845
  18.200   1.9188   0.19229   0.18910  -0.1729  0.0338  0.7360  -6.4210   0.0000   0.2855
  18.400   1.9154   0.19468   0.19153  -0.1749  0.0331  0.7368  -6.4543   0.0000   0.2859
  18.600   1.9096   0.19750   0.19441  -0.1775  0.0325  0.7376  -6.4723   0.0000   0.2867
  18.800   1.9060   0.19998   0.19693  -0.1798  0.0318  0.7386  -6.5022   0.0000   0.2872
  19.000   1.9004   0.20287   0.19987  -0.1825  0.0310  0.7396  -6.5187   0.0000   0.2881
  19.200   1.8956   0.20571   0.20275  -0.1853  0.0303  0.7406  -6.5384   0.0000   0.2890
  19.400   1.8938   0.20822   0.20529  -0.1879  0.0296  0.7419  -6.5746   0.0000   0.2896
  19.600   1.8909   0.21110   0.20823  -0.1909  0.0289  0.7433  -6.6011   0.0000   0.2905
  19.800   1.8910   0.21374   0.21089  -0.1938  0.0281  0.7447  -6.6446   0.0000   0.2911
  20.000   1.8893   0.21688   0.21408  -0.1974  0.0273  0.7461  -6.6739   0.0000   0.2922
  20.400   1.8814   0.22144   0.21871  -0.2020  0.0262  0.7471  -6.7209   0.0000   0.2933
  20.600   1.8769   0.22373   0.22104  -0.2043  0.0256  0.7475  -6.7401   0.0000   0.2940
  20.800   1.8729   0.22591   0.22326  -0.2065  0.0250  0.7479  -6.7622   0.0000   0.2945
  21.000   1.8694   0.22799   0.22538  -0.2086  0.0244  0.7484  -6.7873   0.0000   0.2950
  21.200   1.8640   0.23044   0.22787  -0.2113  0.0239  0.7487  -6.7969   0.0000   0.2959
  21.400   1.8599   0.23262   0.23009  -0.2136  0.0234  0.7492  -6.8153   0.0000   0.2965
  21.600   1.8580   0.23437   0.23187  -0.2154  0.0230  0.7497  -6.8503   0.0000   0.2967
  21.800   1.8555   0.23626   0.23380  -0.2175  0.0225  0.7502  -6.8796   0.0000   0.2971
  22.000   1.8514   0.23848   0.23606  -0.2200  0.0220  0.7507  -6.8949   0.0000   0.2978
  22.200   1.8487   0.24043   0.23804  -0.2222  0.0216  0.7513  -6.9206   0.0000   0.2983
  22.400   1.8458   0.24242   0.24005  -0.2244  0.0211  0.7518  -6.9447   0.0000   0.2988
  22.600   1.8409   0.24485   0.24252  -0.2273  0.0207  0.7523  -6.9497   0.0000   0.2997
  22.800   1.8397   0.24657   0.24427  -0.2293  0.0203  0.7529  -6.9846   0.0000   0.3000
  23.000   1.8388   0.24825   0.24599  -0.2313  0.0198  0.7535  -7.0211   0.0000   0.3002
  23.200   1.8363   0.25025   0.24803  -0.2337  0.0194  0.7541  -7.0457   0.0000   0.3008
  23.400   1.8331   0.25244   0.25025  -0.2364  0.0189  0.7548  -7.0653   0.0000   0.3015
  23.600   1.8311   0.25441   0.25224  -0.2389  0.0184  0.7555  -7.0940   0.0000   0.3021
  23.800   1.8291   0.25641   0.25427  -0.2415  0.0180  0.7562  -7.1218   0.0000   0.3026
  24.000   1.8273   0.25846   0.25636  -0.2441  0.0177  0.7571  -7.1487   0.0000   0.3032
  24.200   1.8271   0.26027   0.25820  -0.2465  0.0173  0.7581  -7.1894   0.0000   0.3036
  24.400   1.8277   0.26212   0.26008  -0.2490  0.0169  0.7595  -7.2334   0.0000   0.3039
  24.600   1.8285   0.26448   0.26246  -0.2524  0.0165  0.7615  -7.2706   0.0000   0.3047
  24.800   1.8288   0.26713   0.26514  -0.2562  0.0161  0.7634  -7.2990   0.0000   0.3056
  25.000   1.8261   0.26888   0.26691  -0.2585  0.0158  0.7638  -7.3212   0.0000   0.3061


