xflr5 v6.47

 Calculated polar for: NACA24018_theta30_Ku4.5_Kl0.5_d0.10_delta2.45

 1 1 Reynolds number fixed          Mach number fixed         

 xtrf =   1.000 (top)        1.000 (bottom)
 Mach =   0.000     Re =     2.200 e 6     Ncrit =   5.000

  alpha     CL        CD       CDp       Cm    Top Xtr Bot Xtr   Cpmin    Chinge    XCp    
 ------- -------- --------- --------- -------- ------- ------- -------- --------- ---------
 -15.000  -1.0522   0.02424   0.01953  -0.0865  0.9611  0.0243  -6.8847   0.0000   0.1447
 -14.800  -1.0393   0.02347   0.01874  -0.0857  0.9573  0.0246  -6.7651   0.0000   0.1448
 -14.600  -1.0219   0.02294   0.01820  -0.0857  0.9560  0.0248  -6.6301   0.0000   0.1437
 -14.400  -1.0018   0.02248   0.01772  -0.0861  0.9552  0.0251  -6.4861   0.0000   0.1418
 -14.200  -0.9793   0.02207   0.01730  -0.0869  0.9546  0.0253  -6.3346   0.0000   0.1392
 -14.000  -0.9741   0.02140   0.01661  -0.0846  0.9516  0.0257  -6.2457   0.0000   0.1415
 -13.800  -0.9614   0.02087   0.01607  -0.0836  0.9499  0.0261  -6.1305   0.0000   0.1417
 -13.600  -0.9448   0.02039   0.01559  -0.0833  0.9489  0.0265  -6.0027   0.0000   0.1408
 -13.400  -0.9268   0.01995   0.01514  -0.0832  0.9483  0.0269  -5.8709   0.0000   0.1394
 -13.200  -0.9076   0.01954   0.01472  -0.0832  0.9478  0.0273  -5.7362   0.0000   0.1377
 -13.000  -0.9153   0.01900   0.01417  -0.0783  0.9442  0.0275  -5.6922   0.0000   0.1444
 -12.800  -0.9016   0.01857   0.01372  -0.0772  0.9426  0.0278  -5.5767   0.0000   0.1446
 -12.600  -0.8816   0.01817   0.01331  -0.0772  0.9418  0.0282  -5.4416   0.0000   0.1428
 -12.400  -0.8602   0.01780   0.01293  -0.0775  0.9411  0.0285  -5.3026   0.0000   0.1405
 -12.200  -0.8376   0.01744   0.01257  -0.0779  0.9407  0.0288  -5.1613   0.0000   0.1377
 -12.000  -0.8313   0.01702   0.01214  -0.0753  0.9374  0.0292  -5.0738   0.0000   0.1405
 -11.400  -0.8065   0.01610   0.01122  -0.0685  0.9151  0.0305  -4.8051   0.0000   0.1471
 -11.200  -0.7854   0.01581   0.01093  -0.0685  0.9109  0.0311  -4.6780   0.0000   0.1449
 -11.000  -0.7612   0.01549   0.01062  -0.0690  0.9079  0.0317  -4.5434   0.0000   0.1415
 -10.600  -0.7090   0.01486   0.00998  -0.0708  0.9012  0.0325  -4.2671   0.0000   0.1324
 -10.400  -0.6795   0.01447   0.00959  -0.0723  0.8973  0.0334  -4.1225   0.0000   0.1258
 -10.200  -0.6457   0.01400   0.00912  -0.0747  0.8937  0.0342  -3.9673   0.0000   0.1164
 -10.000  -0.6055   0.01345   0.00856  -0.0782  0.8851  0.0353  -3.7970   0.0000   0.1026
  -9.800  -0.5507   0.01267   0.00771  -0.0846  0.8674  0.0364  -3.5956   0.0000   0.0774
  -9.600  -0.5123   0.01216   0.00705  -0.0879  0.8263  0.0374  -3.4432   0.0000   0.0590
  -9.400  -0.4955   0.01203   0.00679  -0.0869  0.7916  0.0383  -3.3464   0.0000   0.0551
  -9.200  -0.4767   0.01191   0.00660  -0.0864  0.7675  0.0391  -3.2455   0.0000   0.0492
  -9.000  -0.4568   0.01181   0.00643  -0.0860  0.7470  0.0400  -3.1431   0.0000   0.0420
  -8.800  -0.4363   0.01171   0.00626  -0.0858  0.7267  0.0407  -3.0403   0.0000   0.0335
  -8.600  -0.4148   0.01162   0.00610  -0.0857  0.7068  0.0415  -2.9392   0.0000   0.0233
  -8.400  -0.3926   0.01151   0.00594  -0.0858  0.6875  0.0428  -2.8395   0.0000   0.0110
  -8.200  -0.3699   0.01142   0.00580  -0.0860  0.6690  0.0440  -2.7395   0.0000  -0.0034
  -8.000  -0.3467   0.01134   0.00566  -0.0863  0.6503  0.0451  -2.6400   0.0000  -0.0202
  -7.800  -0.3232   0.01126   0.00553  -0.0866  0.6328  0.0460  -2.5409   0.0000  -0.0399
  -7.600  -0.2990   0.01117   0.00540  -0.0870  0.6180  0.0478  -2.4417   0.0000  -0.0639
  -7.400  -0.2746   0.01109   0.00528  -0.0875  0.6025  0.0496  -2.3433   0.0000  -0.0925
  -7.200  -0.2501   0.01103   0.00517  -0.0880  0.5857  0.0512  -2.2460   0.0000  -0.1269
  -7.000  -0.2252   0.01096   0.00505  -0.0886  0.5688  0.0531  -2.1493   0.0000  -0.1700
  -6.800  -0.2000   0.01089   0.00495  -0.0892  0.5542  0.0551  -2.0533   0.0000  -0.2247
  -6.600  -0.1748   0.01084   0.00486  -0.0898  0.5411  0.0569  -1.9588   0.0000  -0.2949
  -6.400  -0.1495   0.01078   0.00477  -0.0905  0.5266  0.0592  -1.8653   0.0000  -0.3901
  -6.200  -0.1241   0.01074   0.00469  -0.0911  0.5113  0.0617  -1.7733   0.0000  -0.5242
  -6.000  -0.0992   0.01072   0.00462  -0.0917  0.4962  0.0637  -1.6904   0.0000  -0.7214
  -5.800  -0.0740   0.01069   0.00455  -0.0923  0.4825  0.0665  -1.6095   0.0000  -1.0569
  -5.600  -0.0489   0.01066   0.00450  -0.0929  0.4688  0.0695  -1.5299   0.0000  -1.7370
  -5.400  -0.0238   0.01065   0.00445  -0.0934  0.4549  0.0726  -1.4536   0.0000  -3.8487
  -5.200   0.0016   0.01062   0.00440  -0.0941  0.4421  0.0767  -1.3796   0.0000  60.3092
  -5.000   0.0266   0.01062   0.00436  -0.0946  0.4311  0.0796  -1.3073   0.0000   3.9392
  -4.800   0.0521   0.01060   0.00433  -0.0953  0.4203  0.0842  -1.2353   0.0000   2.1417
  -4.600   0.0772   0.01059   0.00430  -0.0958  0.4109  0.0880  -1.1649   0.0000   1.5302
  -4.400   0.1030   0.01058   0.00428  -0.0965  0.4001  0.0946  -1.0947   0.0000   1.2148
  -4.200   0.1284   0.01059   0.00426  -0.0972  0.3884  0.1004  -1.0284   0.0000   1.0271
  -4.000   0.1540   0.01058   0.00425  -0.0978  0.3788  0.1071  -0.9638   0.0000   0.9007
  -3.800   0.1802   0.01058   0.00425  -0.0986  0.3698  0.1169  -0.8996   0.0000   0.8094
  -3.600   0.2066   0.01057   0.00425  -0.0995  0.3615  0.1284  -0.8360   0.0000   0.7408
  -3.400   0.2330   0.01057   0.00426  -0.1003  0.3528  0.1400  -0.8129   0.0000   0.6879
  -3.200   0.2596   0.01057   0.00427  -0.1012  0.3444  0.1536  -0.8403   0.0000   0.6455
  -3.000   0.2871   0.01056   0.00429  -0.1023  0.3376  0.1726  -0.8684   0.0000   0.6106
  -2.800   0.3170   0.01052   0.00432  -0.1039  0.3318  0.2034  -0.8983   0.0000   0.5810
  -2.600   0.3516   0.01044   0.00437  -0.1066  0.3249  0.2569  -0.9315   0.0000   0.5553
  -2.400   0.3887   0.01034   0.00445  -0.1098  0.3195  0.3186  -0.9666   0.0000   0.5337
  -2.200   0.4225   0.01033   0.00453  -0.1122  0.3126  0.3639  -0.9999   0.0000   0.5162
  -2.000   0.4556   0.01033   0.00462  -0.1145  0.3070  0.4026  -1.0340   0.0000   0.5012
  -1.800   0.4876   0.01035   0.00472  -0.1165  0.3022  0.4352  -1.0687   0.0000   0.4883
  -1.600   0.5173   0.01041   0.00480  -0.1180  0.2964  0.4581  -1.1027   0.0000   0.4770
  -1.400   0.5466   0.01047   0.00489  -0.1194  0.2922  0.4777  -1.1366   0.0000   0.4668
  -1.200   0.5754   0.01052   0.00498  -0.1206  0.2890  0.4956  -1.1705   0.0000   0.4577
  -1.000   0.6047   0.01059   0.00508  -0.1220  0.2853  0.5148  -1.2048   0.0000   0.4495
  -0.800   0.6341   0.01068   0.00518  -0.1234  0.2810  0.5349  -1.2395   0.0000   0.4420
  -0.600   0.6638   0.01076   0.00529  -0.1249  0.2776  0.5533  -1.2746   0.0000   0.4351
  -0.400   0.6914   0.01084   0.00539  -0.1259  0.2744  0.5651  -1.3091   0.0000   0.4287
  -0.200   0.7169   0.01094   0.00548  -0.1264  0.2706  0.5713  -1.3428   0.0000   0.4227
   0.000   0.7425   0.01104   0.00558  -0.1271  0.2666  0.5783  -1.3770   0.0000   0.4171
   0.200   0.7669   0.01114   0.00566  -0.1274  0.2636  0.5842  -1.4102   0.0000   0.4118
   0.400   0.7932   0.01124   0.00577  -0.1281  0.2613  0.5909  -1.4453   0.0000   0.4070
   0.600   0.8180   0.01134   0.00587  -0.1285  0.2581  0.5970  -1.4793   0.0000   0.4023
   0.800   0.8426   0.01146   0.00597  -0.1289  0.2542  0.6026  -1.5133   0.0000   0.3979
   1.000   0.8682   0.01159   0.00609  -0.1296  0.2498  0.6097  -1.5498   0.0000   0.3938
   1.200   0.8925   0.01169   0.00620  -0.1299  0.2476  0.6159  -1.5873   0.0000   0.3898
   1.400   0.9181   0.01181   0.00629  -0.1305  0.2447  0.6219  -1.6262   0.0000   0.3862
   1.600   0.9427   0.01194   0.00644  -0.1309  0.2416  0.6281  -1.6643   0.0000   0.3826
   2.000   0.9921   0.01222   0.00671  -0.1317  0.2353  0.6406  -1.7416   0.0000   0.3760
   2.200   1.0163   0.01234   0.00683  -0.1320  0.2336  0.6468  -1.7800   0.0000   0.3729
   2.400   1.0407   0.01247   0.00697  -0.1324  0.2310  0.6523  -1.8189   0.0000   0.3699
   2.600   1.0654   0.01262   0.00712  -0.1328  0.2276  0.6588  -1.8583   0.0000   0.3671
   2.800   1.0884   0.01279   0.00727  -0.1329  0.2236  0.6646  -1.8967   0.0000   0.3643
   3.000   1.1131   0.01294   0.00743  -0.1333  0.2208  0.6704  -1.9397   0.0000   0.3617
   3.200   1.1373   0.01309   0.00758  -0.1336  0.2185  0.6768  -1.9830   0.0000   0.3592
   3.400   1.1599   0.01325   0.00773  -0.1336  0.2158  0.6820  -2.0250   0.0000   0.3566
   3.600   1.1845   0.01343   0.00792  -0.1341  0.2129  0.6880  -2.0694   0.0000   0.3543
   3.800   1.2076   0.01361   0.00810  -0.1342  0.2098  0.6940  -2.1123   0.0000   0.3520
   4.000   1.2302   0.01378   0.00826  -0.1342  0.2076  0.6990  -2.1549   0.0000   0.3497
   4.200   1.2545   0.01395   0.00845  -0.1345  0.2051  0.7048  -2.1997   0.0000   0.3476
   4.400   1.2771   0.01415   0.00864  -0.1346  0.2016  0.7105  -2.2430   0.0000   0.3454
   4.600   1.2985   0.01436   0.00884  -0.1343  0.1978  0.7151  -2.2890   0.0000   0.3432
   4.800   1.3218   0.01457   0.00905  -0.1345  0.1948  0.7203  -2.3376   0.0000   0.3413
   5.000   1.3444   0.01475   0.00924  -0.1345  0.1932  0.7257  -2.3857   0.0000   0.3393
   5.200   1.3658   0.01494   0.00944  -0.1343  0.1911  0.7301  -2.4327   0.0000   0.3373
   5.400   1.3878   0.01515   0.00965  -0.1343  0.1882  0.7344  -2.4807   0.0000   0.3354
   5.600   1.4091   0.01540   0.00989  -0.1341  0.1846  0.7391  -2.5280   0.0000   0.3335
   5.800   1.4300   0.01563   0.01012  -0.1338  0.1817  0.7436  -2.5761   0.0000   0.3316
   6.200   1.4721   0.01608   0.01058  -0.1333  0.1763  0.7519  -2.6776   0.0000   0.3280
   6.400   1.4921   0.01636   0.01085  -0.1329  0.1726  0.7563  -2.7311   0.0000   0.3262
   6.600   1.5119   0.01663   0.01111  -0.1324  0.1695  0.7605  -2.7846   0.0000   0.3244
   6.800   1.5318   0.01686   0.01135  -0.1320  0.1678  0.7639  -2.8387   0.0000   0.3226
   7.000   1.5516   0.01712   0.01163  -0.1315  0.1654  0.7676  -2.8928   0.0000   0.3209
   7.200   1.5699   0.01743   0.01194  -0.1308  0.1619  0.7711  -2.9452   0.0000   0.3191
   7.400   1.5873   0.01778   0.01227  -0.1299  0.1578  0.7745  -2.9967   0.0000   0.3174
   7.600   1.6060   0.01805   0.01255  -0.1292  0.1557  0.7779  -3.0550   0.0000   0.3157
   7.800   1.6242   0.01836   0.01286  -0.1285  0.1529  0.7811  -3.1129   0.0000   0.3140
   8.000   1.6411   0.01873   0.01322  -0.1276  0.1489  0.7846  -3.1700   0.0000   0.3123
   8.200   1.6581   0.01909   0.01358  -0.1267  0.1452  0.7878  -3.2340   0.0000   0.3106
   8.400   1.6756   0.01941   0.01391  -0.1259  0.1425  0.7908  -3.2993   0.0000   0.3090
   8.600   1.6922   0.01979   0.01428  -0.1249  0.1391  0.7935  -3.3634   0.0000   0.3074
   8.800   1.7074   0.02023   0.01471  -0.1238  0.1355  0.7958  -3.4276   0.0000   0.3057
   9.000   1.7230   0.02060   0.01510  -0.1226  0.1333  0.7987  -3.4933   0.0000   0.3040
   9.200   1.7381   0.02100   0.01551  -0.1215  0.1305  0.8015  -3.5586   0.0000   0.3024
   9.400   1.7523   0.02147   0.01597  -0.1202  0.1271  0.8042  -3.6235   0.0000   0.3007
   9.600   1.7666   0.02195   0.01645  -0.1189  0.1236  0.8068  -3.6938   0.0000   0.2991
   9.800   1.7818   0.02240   0.01690  -0.1178  0.1205  0.8091  -3.7690   0.0000   0.2975
  10.000   1.7943   0.02299   0.01748  -0.1163  0.1164  0.8110  -3.8411   0.0000   0.2959
  10.200   1.8061   0.02356   0.01805  -0.1147  0.1130  0.8129  -3.9120   0.0000   0.2942
  10.400   1.8188   0.02405   0.01856  -0.1132  0.1105  0.8151  -3.9854   0.0000   0.2926
  10.600   1.8302   0.02464   0.01916  -0.1116  0.1072  0.8173  -4.0563   0.0000   0.2909
  10.800   1.8399   0.02534   0.01985  -0.1098  0.1038  0.8196  -4.1249   0.0000   0.2892
  11.000   1.8525   0.02592   0.02044  -0.1084  0.1017  0.8219  -4.2047   0.0000   0.2877
  11.200   1.8639   0.02659   0.02112  -0.1070  0.0986  0.8239  -4.2850   0.0000   0.2862
  11.400   1.8723   0.02747   0.02199  -0.1051  0.0947  0.8255  -4.3581   0.0000   0.2845
  11.600   1.8838   0.02819   0.02272  -0.1038  0.0921  0.8269  -4.4397   0.0000   0.2831
  11.800   1.8914   0.02903   0.02357  -0.1019  0.0891  0.8286  -4.5119   0.0000   0.2814
  12.000   1.8968   0.02999   0.02454  -0.0998  0.0859  0.8303  -4.5808   0.0000   0.2797
  12.200   1.9050   0.03080   0.02538  -0.0980  0.0839  0.8321  -4.6575   0.0000   0.2782
  12.400   1.9116   0.03176   0.02636  -0.0962  0.0813  0.8339  -4.7306   0.0000   0.2767
  12.600   1.9163   0.03292   0.02753  -0.0943  0.0784  0.8356  -4.7986   0.0000   0.2751
  12.800   1.9236   0.03396   0.02859  -0.0928  0.0763  0.8372  -4.8736   0.0000   0.2737
  13.000   1.9305   0.03508   0.02973  -0.0913  0.0742  0.8386  -4.9483   0.0000   0.2723
  13.200   1.9351   0.03644   0.03111  -0.0897  0.0716  0.8399  -5.0164   0.0000   0.2710
  13.400   1.9400   0.03785   0.03253  -0.0883  0.0692  0.8411  -5.0856   0.0000   0.2697
  13.600   1.9464   0.03920   0.03391  -0.0872  0.0672  0.8422  -5.1593   0.0000   0.2684
  13.800   1.9486   0.04071   0.03544  -0.0856  0.0651  0.8435  -5.2233   0.0000   0.2671
  14.000   1.9482   0.04237   0.03714  -0.0838  0.0631  0.8448  -5.2797   0.0000   0.2658
  14.200   1.9502   0.04389   0.03870  -0.0824  0.0617  0.8461  -5.3433   0.0000   0.2645
  14.400   1.9517   0.04552   0.04038  -0.0810  0.0602  0.8473  -5.4052   0.0000   0.2633
  14.600   1.9513   0.04740   0.04229  -0.0798  0.0585  0.8485  -5.4614   0.0000   0.2622
  14.800   1.9488   0.04957   0.04450  -0.0786  0.0566  0.8496  -5.5111   0.0000   0.2611
  15.000   1.9488   0.05160   0.04657  -0.0777  0.0552  0.8507  -5.5748   0.0000   0.2601
  15.200   1.9483   0.05380   0.04882  -0.0770  0.0538  0.8517  -5.6364   0.0000   0.2593
  15.400   1.9457   0.05629   0.05135  -0.0764  0.0522  0.8527  -5.6909   0.0000   0.2585
  15.600   1.9409   0.05911   0.05422  -0.0759  0.0506  0.8536  -5.7370   0.0000   0.2578
  15.800   1.9385   0.06175   0.05691  -0.0757  0.0494  0.8544  -5.7912   0.0000   0.2572
  16.000   1.9351   0.06455   0.05976  -0.0756  0.0483  0.8552  -5.8419   0.0000   0.2567
  16.200   1.9293   0.06770   0.06297  -0.0757  0.0470  0.8558  -5.8832   0.0000   0.2562
  16.400   1.9212   0.07121   0.06654  -0.0759  0.0457  0.8563  -5.9151   0.0000   0.2560
  16.600   1.9127   0.07484   0.07023  -0.0764  0.0445  0.8568  -5.9452   0.0000   0.2558
  16.800   1.9058   0.07836   0.07382  -0.0770  0.0436  0.8572  -5.9799   0.0000   0.2557
  17.000   1.8962   0.08207   0.07760  -0.0776  0.0427  0.8577  -6.0042   0.0000   0.2556
  17.200   1.8843   0.08596   0.08156  -0.0782  0.0418  0.8583  -6.0185   0.0000   0.2556
  17.400   1.8706   0.09016   0.08585  -0.0791  0.0409  0.8588  -6.0247   0.0000   0.2557
  17.600   1.8557   0.09462   0.09038  -0.0802  0.0402  0.8592  -6.0243   0.0000   0.2561
  17.800   1.8429   0.09881   0.09465  -0.0814  0.0395  0.8596  -6.0308   0.0000   0.2564
  18.000   1.8314   0.10284   0.09876  -0.0827  0.0390  0.8601  -6.0409   0.0000   0.2568
  18.200   1.8190   0.10700   0.10300  -0.0841  0.0385  0.8605  -6.0461   0.0000   0.2572
  18.400   1.8062   0.11125   0.10733  -0.0857  0.0379  0.8609  -6.0478   0.0000   0.2578
  18.600   1.7927   0.11562   0.11177  -0.0875  0.0372  0.8614  -6.0450   0.0000   0.2586
  18.800   1.7789   0.12008   0.11630  -0.0895  0.0366  0.8618  -6.0385   0.0000   0.2594
  19.000   1.7649   0.12459   0.12088  -0.0917  0.0359  0.8623  -6.0294   0.0000   0.2604
  19.400   1.7412   0.13305   0.12949  -0.0962  0.0348  0.8632  -6.0240   0.0000   0.2624
  19.600   1.7324   0.13687   0.13337  -0.0983  0.0342  0.8638  -6.0332   0.0000   0.2632
  19.800   1.7240   0.14069   0.13724  -0.1006  0.0336  0.8643  -6.0419   0.0000   0.2642
  20.000   1.7137   0.14484   0.14145  -0.1032  0.0329  0.8648  -6.0401   0.0000   0.2654
  20.200   1.7044   0.14884   0.14551  -0.1058  0.0322  0.8652  -6.0415   0.0000   0.2666
  20.400   1.6963   0.15267   0.14939  -0.1084  0.0315  0.8657  -6.0471   0.0000   0.2677
  20.600   1.6881   0.15657   0.15334  -0.1112  0.0309  0.8663  -6.0502   0.0000   0.2690
  20.800   1.6850   0.15964   0.15646  -0.1133  0.0304  0.8669  -6.0782   0.0000   0.2698
  21.000   1.6783   0.16334   0.16020  -0.1161  0.0299  0.8675  -6.0862   0.0000   0.2710
  21.200   1.6748   0.16649   0.16340  -0.1185  0.0292  0.8682  -6.1105   0.0000   0.2719
  21.400   1.6681   0.17024   0.16719  -0.1215  0.0286  0.8687  -6.1155   0.0000   0.2733
  21.600   1.6643   0.17353   0.17052  -0.1241  0.0280  0.8693  -6.1348   0.0000   0.2743
  21.800   1.6586   0.17718   0.17421  -0.1272  0.0274  0.8698  -6.1421   0.0000   0.2757
  22.000   1.6572   0.18012   0.17720  -0.1297  0.0270  0.8703  -6.1724   0.0000   0.2766
  22.200   1.6568   0.18291   0.18001  -0.1321  0.0264  0.8707  -6.2077   0.0000   0.2774
  22.400   1.6521   0.18645   0.18360  -0.1352  0.0259  0.8711  -6.2169   0.0000   0.2788
  22.600   1.6512   0.18934   0.18652  -0.1379  0.0254  0.8715  -6.2473   0.0000   0.2797
  22.800   1.6470   0.19245   0.18966  -0.1405  0.0248  0.8720  -6.2602   0.0000   0.2809
  23.000   1.6413   0.19556   0.19281  -0.1431  0.0243  0.8726  -6.2651   0.0000   0.2820
  23.200   1.6391   0.19797   0.19526  -0.1450  0.0239  0.8732  -6.2940   0.0000   0.2826
  23.400   1.6351   0.20076   0.19810  -0.1474  0.0236  0.8737  -6.3124   0.0000   0.2836
  23.600   1.6321   0.20339   0.20076  -0.1496  0.0232  0.8743  -6.3375   0.0000   0.2844
  23.800   1.6310   0.20571   0.20311  -0.1516  0.0227  0.8748  -6.3740   0.0000   0.2850
  24.000   1.6275   0.20852   0.20596  -0.1542  0.0223  0.8752  -6.3932   0.0000   0.2860
  24.200   1.6236   0.21148   0.20895  -0.1569  0.0218  0.8757  -6.4076   0.0000   0.2872
  24.400   1.6222   0.21399   0.21149  -0.1593  0.0213  0.8761  -6.4388   0.0000   0.2880
  24.600   1.6194   0.21681   0.21434  -0.1620  0.0209  0.8766  -6.4579   0.0000   0.2891
  24.800   1.6174   0.21943   0.21700  -0.1646  0.0206  0.8771  -6.4826   0.0000   0.2901
  25.000   1.6176   0.22162   0.21922  -0.1667  0.0202  0.8777  -6.5235   0.0000   0.2906


