xflr5 v6.47

 Calculated polar for: NACA24018_theta30_Ku4.5_Kl0.5_d0.31_delta11.03

 1 1 Reynolds number fixed          Mach number fixed         

 xtrf =   1.000 (top)        1.000 (bottom)
 Mach =   0.000     Re =     1.600 e 6     Ncrit =   5.000

  alpha     CL        CD       CDp       Cm    Top Xtr Bot Xtr   Cpmin    Chinge    XCp    
 ------- -------- --------- --------- -------- ------- ------- -------- --------- ---------
 -15.000  -0.2601   0.04984   0.04608  -0.1514  0.7935  0.0432  -3.8634   0.0000  -0.3898
 -14.800  -0.2338   0.05022   0.04646  -0.1527  0.7935  0.0439  -3.7296   0.0000  -0.4653
 -14.600  -0.2066   0.05063   0.04688  -0.1541  0.7935  0.0446  -3.5953   0.0000  -0.5639
 -14.400  -0.1780   0.05108   0.04735  -0.1558  0.7936  0.0456  -3.4582   0.0000  -0.7019
 -14.200  -0.1502   0.05155   0.04783  -0.1573  0.7936  0.0466  -3.3250   0.0000  -0.8850
 -14.000  -0.1234   0.05202   0.04831  -0.1586  0.7936  0.0476  -3.1963   0.0000  -1.1386
 -13.800  -0.0972   0.05250   0.04879  -0.1597  0.7935  0.0485  -3.0773   0.0000  -1.5197
 -13.600  -0.0701   0.05297   0.04928  -0.1610  0.7934  0.0495  -2.9618   0.0000  -2.2177
 -13.400  -0.0401   0.05339   0.04972  -0.1627  0.7931  0.0510  -2.8404   0.0000  -4.0929
 -13.200  -0.0073   0.05357   0.04991  -0.1646  0.7924  0.0524  -2.7137   0.0000  -23.9659
 -13.000   0.0320   0.05333   0.04966  -0.1674  0.7914  0.0538  -2.5738   0.0000   5.8094
 -12.800   0.0843   0.05253   0.04887  -0.1719  0.7904  0.0560  -2.4067   0.0000   2.4109
 -12.600   0.1394   0.05144   0.04777  -0.1768  0.7897  0.0584  -2.2370   0.0000   1.5877
  -9.800   0.5263   0.05874   0.05538  -0.1927  0.7652  0.1011  -0.9912   0.0000   0.6248
  -9.600   0.5037   0.06252   0.05922  -0.1872  0.7277  0.1014  -0.9929   0.0000   0.6298
  -9.400   0.5853   0.05976   0.05641  -0.1952  0.7179  0.1125  -0.9089   0.0000   0.5900
  -9.200   0.6945   0.05565   0.05190  -0.2076  0.6618  0.1324  -1.1267   0.0000   0.5540
  -9.000   0.6908   0.05796   0.05389  -0.2041  0.5934  0.1360  -1.0812   0.0000   0.5500
  -8.800   0.7094   0.05933   0.05512  -0.2040  0.5571  0.1450  -1.0691   0.0000   0.5413
  -8.600   0.7327   0.06047   0.05615  -0.2045  0.5262  0.1560  -1.0653   0.0000   0.5321
  -8.400   0.7583   0.06155   0.05713  -0.2053  0.4983  0.1697  -1.0650   0.0000   0.5232
  -8.200   0.7871   0.06262   0.05814  -0.2067  0.4745  0.1877  -1.0695   0.0000   0.5143
  -8.000   0.8185   0.06376   0.05924  -0.2084  0.4546  0.2102  -1.0769   0.0000   0.5057
  -7.800   0.8559   0.06522   0.06067  -0.2111  0.4350  0.2424  -1.0982   0.0000   0.4972
  -7.600   0.9008   0.06713   0.06257  -0.2150  0.4137  0.2869  -1.1423   0.0000   0.4887
  -7.400   0.9449   0.06904   0.06448  -0.2187  0.3940  0.3326  -1.1896   0.0000   0.4810
  -7.200   0.9853   0.07075   0.06616  -0.2218  0.3774  0.3679  -1.2342   0.0000   0.4741
  -7.000   1.0158   0.07187   0.06723  -0.2232  0.3637  0.3849  -1.2710   0.0000   0.4683
  -6.800   1.0421   0.07270   0.06804  -0.2239  0.3546  0.3974  -1.3046   0.0000   0.4631
  -6.400   1.0935   0.07432   0.06960  -0.2251  0.3393  0.4187  -1.3713   0.0000   0.4533
  -6.200   1.1175   0.07503   0.07027  -0.2254  0.3322  0.4275  -1.4035   0.0000   0.4487
  -6.000   1.1413   0.07573   0.07094  -0.2257  0.3256  0.4355  -1.4357   0.0000   0.4444
  -5.800   1.1667   0.07654   0.07173  -0.2262  0.3202  0.4441  -1.4695   0.0000   0.4402
  -5.600   1.1885   0.07712   0.07227  -0.2261  0.3139  0.4506  -1.5003   0.0000   0.4362
  -5.400   1.2150   0.07802   0.07316  -0.2268  0.3072  0.4617  -1.5379   0.0000   0.4323
  -5.200   1.2369   0.07861   0.07373  -0.2267  0.3024  0.4685  -1.5722   0.0000   0.4286
  -5.000   1.2579   0.07915   0.07424  -0.2265  0.2970  0.4729  -1.6057   0.0000   0.4251
  -4.600   1.2995   0.08021   0.07526  -0.2261  0.2884  0.4811  -1.6729   0.0000   0.4183
  -4.400   1.3192   0.08066   0.07571  -0.2256  0.2851  0.4842  -1.7068   0.0000   0.4150
  -4.200   1.3385   0.08110   0.07612  -0.2252  0.2811  0.4867  -1.7409   0.0000   0.4119
  -4.000   1.3576   0.08154   0.07652  -0.2247  0.2764  0.4890  -1.7749   0.0000   0.4088
  -3.800   1.3776   0.08202   0.07699  -0.2243  0.2725  0.4925  -1.8100   0.0000   0.4059
  -3.600   1.3978   0.08252   0.07749  -0.2240  0.2698  0.4960  -1.8455   0.0000   0.4029
  -3.400   1.4172   0.08298   0.07794  -0.2235  0.2668  0.4991  -1.8805   0.0000   0.4001
  -3.200   1.4362   0.08342   0.07837  -0.2230  0.2635  0.5021  -1.9151   0.0000   0.3973
  -3.000   1.4550   0.08385   0.07877  -0.2224  0.2595  0.5052  -1.9496   0.0000   0.3947
  -2.800   1.4736   0.08427   0.07917  -0.2218  0.2558  0.5077  -1.9851   0.0000   0.3920
  -2.600   1.4920   0.08467   0.07957  -0.2212  0.2529  0.5102  -2.0229   0.0000   0.3894
  -2.400   1.5106   0.08510   0.07998  -0.2206  0.2492  0.5132  -2.0610   0.0000   0.3869
  -2.200   1.5287   0.08551   0.08038  -0.2200  0.2454  0.5160  -2.0988   0.0000   0.3844
  -2.000   1.5467   0.08592   0.08077  -0.2193  0.2415  0.5188  -2.1365   0.0000   0.3820
  -1.800   1.5647   0.08633   0.08117  -0.2186  0.2391  0.5217  -2.1745   0.0000   0.3796
  -1.600   1.5829   0.08674   0.08159  -0.2180  0.2370  0.5246  -2.2129   0.0000   0.3773
  -1.400   1.6010   0.08716   0.08200  -0.2173  0.2343  0.5271  -2.2520   0.0000   0.3750
  -1.200   1.6185   0.08756   0.08239  -0.2166  0.2310  0.5296  -2.2916   0.0000   0.3728
  -1.000   1.6357   0.08796   0.08277  -0.2158  0.2272  0.5325  -2.3310   0.0000   0.3706
  -0.800   1.6528   0.08836   0.08316  -0.2150  0.2239  0.5352  -2.3705   0.0000   0.3684
  -0.600   1.6701   0.08875   0.08356  -0.2142  0.2220  0.5379  -2.4105   0.0000   0.3663
  -0.400   1.6873   0.08915   0.08396  -0.2134  0.2194  0.5405  -2.4505   0.0000   0.3642
  -0.200   1.7045   0.08958   0.08438  -0.2127  0.2159  0.5431  -2.4918   0.0000   0.3621
   0.000   1.7215   0.09004   0.08481  -0.2119  0.2117  0.5456  -2.5355   0.0000   0.3601
   0.200   1.7383   0.09047   0.08523  -0.2110  0.2086  0.5478  -2.5791   0.0000   0.3581
   0.400   1.7540   0.09086   0.08563  -0.2101  0.2066  0.5506  -2.6215   0.0000   0.3561
   0.600   1.7695   0.09127   0.08605  -0.2090  0.2042  0.5532  -2.6638   0.0000   0.3542
   0.800   1.7847   0.09169   0.08647  -0.2080  0.2013  0.5556  -2.7059   0.0000   0.3522
   1.000   1.7997   0.09213   0.08690  -0.2070  0.1978  0.5581  -2.7503   0.0000   0.3503
   1.200   1.8149   0.09259   0.08734  -0.2059  0.1943  0.5606  -2.7965   0.0000   0.3485
   1.400   1.8308   0.09304   0.08781  -0.2050  0.1920  0.5632  -2.8438   0.0000   0.3466
   1.600   1.8466   0.09352   0.08828  -0.2041  0.1892  0.5655  -2.8914   0.0000   0.3448
   1.800   1.8618   0.09397   0.08872  -0.2030  0.1863  0.5675  -2.9382   0.0000   0.3430
   2.000   1.8754   0.09434   0.08909  -0.2018  0.1831  0.5698  -2.9829   0.0000   0.3412
   2.200   1.8894   0.09472   0.08946  -0.2006  0.1801  0.5720  -3.0309   0.0000   0.3394
   2.400   1.9035   0.09509   0.08985  -0.1995  0.1774  0.5743  -3.0825   0.0000   0.3377
   2.600   1.9175   0.09550   0.09026  -0.1983  0.1739  0.5765  -3.1341   0.0000   0.3359
   2.800   1.9313   0.09597   0.09070  -0.1971  0.1703  0.5790  -3.1857   0.0000   0.3342
   3.000   1.9455   0.09645   0.09118  -0.1960  0.1671  0.5816  -3.2383   0.0000   0.3325
   3.200   1.9606   0.09694   0.09168  -0.1951  0.1650  0.5838  -3.2927   0.0000   0.3309
   3.400   1.9754   0.09747   0.09221  -0.1941  0.1617  0.5857  -3.3529   0.0000   0.3293
   3.600   1.9877   0.09793   0.09265  -0.1927  0.1578  0.5874  -3.4110   0.0000   0.3276
   3.800   1.9992   0.09835   0.09306  -0.1913  0.1541  0.5894  -3.4677   0.0000   0.3259
   4.000   2.0108   0.09880   0.09353  -0.1899  0.1514  0.5913  -3.5251   0.0000   0.3243
   4.200   2.0216   0.09934   0.09408  -0.1884  0.1482  0.5933  -3.5856   0.0000   0.3227
   4.400   2.0323   0.09993   0.09466  -0.1869  0.1451  0.5955  -3.6482   0.0000   0.3210
   4.600   2.0436   0.10052   0.09525  -0.1856  0.1420  0.5978  -3.7126   0.0000   0.3195
   4.800   2.0558   0.10109   0.09582  -0.1843  0.1392  0.6001  -3.7792   0.0000   0.3179
   5.000   2.0673   0.10172   0.09645  -0.1830  0.1351  0.6020  -3.8447   0.0000   0.3163
   5.200   2.0781   0.10242   0.09712  -0.1816  0.1308  0.6037  -3.9154   0.0000   0.3148
   5.400   2.0907   0.10306   0.09777  -0.1805  0.1277  0.6053  -3.9914   0.0000   0.3133
   5.600   2.0998   0.10360   0.09831  -0.1789  0.1240  0.6072  -4.0593   0.0000   0.3118
   5.800   2.1075   0.10422   0.09891  -0.1772  0.1201  0.6090  -4.1241   0.0000   0.3102
   6.000   2.1156   0.10487   0.09958  -0.1756  0.1178  0.6107  -4.1906   0.0000   0.3087
   6.200   2.1234   0.10557   0.10030  -0.1739  0.1149  0.6123  -4.2565   0.0000   0.3071
   6.400   2.1308   0.10631   0.10104  -0.1723  0.1118  0.6139  -4.3233   0.0000   0.3056
   6.600   2.1391   0.10701   0.10175  -0.1707  0.1088  0.6155  -4.3980   0.0000   0.3041
   6.800   2.1478   0.10771   0.10246  -0.1693  0.1057  0.6172  -4.4747   0.0000   0.3027
   7.000   2.1553   0.10856   0.10330  -0.1678  0.1021  0.6189  -4.5486   0.0000   0.3012
   7.200   2.1621   0.10956   0.10430  -0.1662  0.0991  0.6205  -4.6213   0.0000   0.2998
   7.400   2.1697   0.11057   0.10532  -0.1648  0.0961  0.6223  -4.6968   0.0000   0.2984
   7.600   2.1769   0.11166   0.10640  -0.1635  0.0926  0.6240  -4.7717   0.0000   0.2970
   7.800   2.1840   0.11260   0.10735  -0.1621  0.0898  0.6255  -4.8492   0.0000   0.2956
   8.000   2.1883   0.11343   0.10820  -0.1603  0.0870  0.6269  -4.9224   0.0000   0.2942
   8.200   2.1901   0.11457   0.10935  -0.1585  0.0841  0.6281  -4.9890   0.0000   0.2928
   8.400   2.1939   0.11553   0.11033  -0.1569  0.0818  0.6293  -5.0616   0.0000   0.2914
   8.600   2.1982   0.11645   0.11128  -0.1553  0.0791  0.6305  -5.1359   0.0000   0.2900
   8.800   2.1993   0.11775   0.11259  -0.1537  0.0763  0.6316  -5.2009   0.0000   0.2887
   9.000   2.2019   0.11892   0.11377  -0.1522  0.0739  0.6328  -5.2706   0.0000   0.2873
   9.200   2.2048   0.12008   0.11496  -0.1508  0.0713  0.6341  -5.3414   0.0000   0.2861
   9.400   2.2049   0.12157   0.11647  -0.1494  0.0686  0.6355  -5.4040   0.0000   0.2848
   9.600   2.2074   0.12291   0.11783  -0.1481  0.0664  0.6371  -5.4738   0.0000   0.2836
   9.800   2.2093   0.12438   0.11932  -0.1470  0.0640  0.6388  -5.5424   0.0000   0.2824
  10.000   2.2095   0.12609   0.12105  -0.1460  0.0617  0.6403  -5.6056   0.0000   0.2813
  10.200   2.2125   0.12758   0.12257  -0.1451  0.0598  0.6419  -5.6777   0.0000   0.2802
  10.400   2.2134   0.12928   0.12430  -0.1443  0.0577  0.6431  -5.7431   0.0000   0.2792
  10.600   2.2132   0.13109   0.12613  -0.1435  0.0555  0.6441  -5.8046   0.0000   0.2782
  10.800   2.2119   0.13257   0.12765  -0.1426  0.0541  0.6451  -5.8616   0.0000   0.2772
  11.000   2.2100   0.13413   0.12926  -0.1417  0.0525  0.6460  -5.9171   0.0000   0.2762
  11.200   2.2076   0.13574   0.13090  -0.1410  0.0509  0.6469  -5.9716   0.0000   0.2753
  11.400   2.2036   0.13755   0.13276  -0.1403  0.0495  0.6478  -6.0212   0.0000   0.2745
  11.600   2.2019   0.13909   0.13435  -0.1398  0.0484  0.6488  -6.0797   0.0000   0.2736
  11.800   2.1995   0.14072   0.13603  -0.1393  0.0471  0.6498  -6.1355   0.0000   0.2728
  12.000   2.1952   0.14262   0.13797  -0.1391  0.0457  0.6506  -6.1838   0.0000   0.2721
  12.200   2.1906   0.14458   0.13997  -0.1390  0.0445  0.6515  -6.2303   0.0000   0.2715
  12.400   2.1883   0.14629   0.14174  -0.1390  0.0435  0.6525  -6.2870   0.0000   0.2708
  12.600   2.1844   0.14825   0.14375  -0.1392  0.0424  0.6534  -6.3392   0.0000   0.2703
  12.800   2.1803   0.15028   0.14583  -0.1395  0.0412  0.6544  -6.3897   0.0000   0.2698
  13.000   2.1755   0.15242   0.14801  -0.1401  0.0400  0.6554  -6.4367   0.0000   0.2694
  13.200   2.1714   0.15452   0.15017  -0.1407  0.0391  0.6565  -6.4862   0.0000   0.2691
  13.400   2.1674   0.15664   0.15235  -0.1415  0.0381  0.6576  -6.5357   0.0000   0.2688
  13.600   2.1632   0.15880   0.15456  -0.1424  0.0371  0.6587  -6.5835   0.0000   0.2685
  13.800   2.1575   0.16120   0.15701  -0.1436  0.0360  0.6599  -6.6235   0.0000   0.2685
  14.000   2.1518   0.16367   0.15953  -0.1450  0.0352  0.6611  -6.6628   0.0000   0.2685
  14.200   2.1483   0.16597   0.16189  -0.1464  0.0343  0.6624  -6.7111   0.0000   0.2684
  14.400   2.1436   0.16822   0.16419  -0.1478  0.0335  0.6634  -6.7537   0.0000   0.2683
  14.600   2.1352   0.17060   0.16664  -0.1492  0.0327  0.6640  -6.7784   0.0000   0.2685
  14.800   2.1262   0.17309   0.16919  -0.1509  0.0319  0.6646  -6.7984   0.0000   0.2687
  15.000   2.1185   0.17540   0.17156  -0.1525  0.0313  0.6652  -6.8245   0.0000   0.2688
  15.200   2.1118   0.17760   0.17382  -0.1540  0.0306  0.6658  -6.8545   0.0000   0.2689
  15.400   2.1038   0.18001   0.17630  -0.1558  0.0300  0.6664  -6.8765   0.0000   0.2692
  15.600   2.0965   0.18232   0.17866  -0.1575  0.0292  0.6669  -6.9016   0.0000   0.2694
  15.800   2.0877   0.18487   0.18126  -0.1596  0.0286  0.6674  -6.9175   0.0000   0.2698
  16.000   2.0783   0.18752   0.18397  -0.1619  0.0279  0.6680  -6.9288   0.0000   0.2703
  16.200   2.0725   0.18964   0.18616  -0.1637  0.0274  0.6686  -6.9590   0.0000   0.2705
  16.400   2.0644   0.19212   0.18870  -0.1659  0.0268  0.6691  -6.9756   0.0000   0.2710
  16.600   2.0585   0.19429   0.19091  -0.1678  0.0262  0.6698  -7.0037   0.0000   0.2712
  16.800   2.0497   0.19691   0.19360  -0.1703  0.0256  0.6704  -7.0136   0.0000   0.2718
  17.000   2.0432   0.19921   0.19593  -0.1725  0.0250  0.6710  -7.0361   0.0000   0.2722
  17.200   2.0346   0.20185   0.19863  -0.1751  0.0244  0.6717  -7.0446   0.0000   0.2729
  17.400   2.0306   0.20381   0.20064  -0.1770  0.0239  0.6726  -7.0799   0.0000   0.2731
  17.600   2.0234   0.20628   0.20316  -0.1795  0.0234  0.6734  -7.0949   0.0000   0.2737
  17.800   2.0185   0.20841   0.20534  -0.1817  0.0228  0.6743  -7.1228   0.0000   0.2740
  18.000   2.0117   0.21086   0.20784  -0.1844  0.0222  0.6753  -7.1376   0.0000   0.2746
  18.200   2.0056   0.21324   0.21025  -0.1870  0.0216  0.6764  -7.1559   0.0000   0.2752
  18.400   2.0029   0.21515   0.21220  -0.1890  0.0212  0.6778  -7.1950   0.0000   0.2754
  18.600   1.9976   0.21758   0.21469  -0.1918  0.0208  0.6791  -7.2148   0.0000   0.2761
  18.800   1.9956   0.21959   0.21674  -0.1941  0.0202  0.6805  -7.2553   0.0000   0.2763
  19.000   1.9929   0.22171   0.21889  -0.1965  0.0197  0.6816  -7.2904   0.0000   0.2767
  19.200   1.9856   0.22402   0.22125  -0.1992  0.0193  0.6822  -7.2975   0.0000   0.2774
  19.400   1.9808   0.22588   0.22314  -0.2014  0.0189  0.6827  -7.3218   0.0000   0.2777
  19.600   1.9761   0.22774   0.22504  -0.2035  0.0185  0.6832  -7.3450   0.0000   0.2781
  19.800   1.9707   0.22969   0.22704  -0.2058  0.0182  0.6837  -7.3630   0.0000   0.2785
  20.000   1.9672   0.23132   0.22871  -0.2077  0.0178  0.6842  -7.3942   0.0000   0.2787
  20.200   1.9633   0.23300   0.23043  -0.2097  0.0174  0.6847  -7.4220   0.0000   0.2789
  20.400   1.9567   0.23516   0.23263  -0.2124  0.0171  0.6851  -7.4281   0.0000   0.2796
  20.600   1.9525   0.23688   0.23439  -0.2146  0.0167  0.6856  -7.4519   0.0000   0.2799
  20.800   1.9483   0.23859   0.23612  -0.2167  0.0164  0.6861  -7.4754   0.0000   0.2802
  21.000   1.9425   0.24059   0.23818  -0.2193  0.0161  0.6866  -7.4841   0.0000   0.2809
  21.200   1.9396   0.24207   0.23969  -0.2212  0.0158  0.6872  -7.5163   0.0000   0.2810
  21.400   1.9372   0.24352   0.24118  -0.2230  0.0155  0.6878  -7.5514   0.0000   0.2810


