xflr5 v6.47

 Calculated polar for: NACA24018_theta30_Ku4.5_Kl0.5_d0.28_delta9.02

 1 1 Reynolds number fixed          Mach number fixed         

 xtrf =   1.000 (top)        1.000 (bottom)
 Mach =   0.000     Re =     1.400 e 6     Ncrit =   5.000

  alpha     CL        CD       CDp       Cm    Top Xtr Bot Xtr   Cpmin    Chinge    XCp    
 ------- -------- --------- --------- -------- ------- ------- -------- --------- ---------
 -15.000  -0.5082   0.04107   0.03688  -0.1310  0.8294  0.0379  -4.7119   0.0000  -0.0415
 -14.800  -0.4811   0.04114   0.03695  -0.1326  0.8294  0.0386  -4.5680   0.0000  -0.0603
 -14.600  -0.4542   0.04124   0.03706  -0.1341  0.8294  0.0393  -4.4308   0.0000  -0.0809
 -14.400  -0.4273   0.04138   0.03721  -0.1355  0.8294  0.0400  -4.2953   0.0000  -0.1040
 -14.200  -0.4006   0.04155   0.03738  -0.1369  0.8294  0.0407  -4.1615   0.0000  -0.1299
 -14.000  -0.3743   0.04175   0.03757  -0.1382  0.8293  0.0413  -4.0303   0.0000  -0.1589
 -13.800  -0.3466   0.04196   0.03780  -0.1398  0.8292  0.0421  -3.8970   0.0000  -0.1946
 -13.600  -0.3191   0.04221   0.03806  -0.1412  0.8292  0.0431  -3.7651   0.0000  -0.2362
 -13.400  -0.2924   0.04247   0.03834  -0.1425  0.8290  0.0441  -3.6366   0.0000  -0.2837
 -13.200  -0.2661   0.04273   0.03860  -0.1437  0.8285  0.0451  -3.5110   0.0000  -0.3394
 -13.000  -0.2375   0.04286   0.03873  -0.1452  0.8274  0.0460  -3.3807   0.0000  -0.4145
 -12.800  -0.2028   0.04285   0.03874  -0.1476  0.8263  0.0474  -3.2357   0.0000  -0.5382
 -12.600  -0.1662   0.04273   0.03863  -0.1502  0.8253  0.0488  -3.0879   0.0000  -0.7244
 -12.400  -0.1279   0.04250   0.03841  -0.1530  0.8245  0.0501  -2.9380   0.0000  -1.0348
 -12.200  -0.0854   0.04212   0.03803  -0.1563  0.8237  0.0516  -2.7805   0.0000  -1.7089
 -12.000  -0.0340   0.04134   0.03725  -0.1610  0.8230  0.0537  -2.6041   0.0000  -4.8002
  -9.200   0.3112   0.04843   0.04467  -0.1715  0.7641  0.0857  -1.3380   0.0000   0.8196
  -9.000   0.3599   0.04772   0.04396  -0.1755  0.7555  0.0916  -1.2200   0.0000   0.7525
  -8.800   0.4309   0.04577   0.04198  -0.1827  0.7473  0.1003  -1.0751   0.0000   0.6855
  -8.600   0.5395   0.04178   0.03771  -0.1957  0.7099  0.1162  -0.9615   0.0000   0.6216
  -8.400   0.5455   0.04311   0.03866  -0.1934  0.6302  0.1206  -0.9449   0.0000   0.6126
  -8.200   0.5622   0.04410   0.03949  -0.1928  0.5918  0.1273  -0.9317   0.0000   0.6002
  -8.000   0.5850   0.04493   0.04020  -0.1932  0.5596  0.1365  -0.9271   0.0000   0.5866
  -7.800   0.6111   0.04564   0.04082  -0.1941  0.5316  0.1476  -0.9281   0.0000   0.5732
  -7.600   0.6393   0.04635   0.04147  -0.1954  0.5080  0.1616  -0.9317   0.0000   0.5603
  -7.400   0.6695   0.04711   0.04216  -0.1969  0.4851  0.1800  -0.9618   0.0000   0.5481
  -7.200   0.7025   0.04794   0.04295  -0.1990  0.4631  0.2028  -0.9951   0.0000   0.5365
  -7.000   0.7411   0.04899   0.04399  -0.2020  0.4422  0.2369  -1.0328   0.0000   0.5252
  -6.800   0.7973   0.05078   0.04585  -0.2081  0.4225  0.3075  -1.0839   0.0000   0.5129
  -6.600   0.8415   0.05211   0.04720  -0.2120  0.4060  0.3521  -1.1268   0.0000   0.5033
  -6.200   0.9111   0.05404   0.04907  -0.2165  0.3773  0.4010  -1.2025   0.0000   0.4879
  -6.000   0.9368   0.05459   0.04958  -0.2171  0.3671  0.4122  -1.2336   0.0000   0.4816
  -5.800   0.9663   0.05534   0.05030  -0.2183  0.3572  0.4261  -1.2694   0.0000   0.4754
  -5.600   0.9938   0.05599   0.05093  -0.2192  0.3486  0.4374  -1.3038   0.0000   0.4696
  -5.400   1.0188   0.05654   0.05143  -0.2197  0.3398  0.4462  -1.3364   0.0000   0.4643
  -5.200   1.0444   0.05712   0.05198  -0.2202  0.3324  0.4542  -1.3697   0.0000   0.4591
  -5.000   1.0720   0.05780   0.05265  -0.2211  0.3263  0.4668  -1.4057   0.0000   0.4542
  -4.800   1.1018   0.05862   0.05344  -0.2224  0.3191  0.4818  -1.4447   0.0000   0.4493
  -4.600   1.1259   0.05914   0.05394  -0.2226  0.3141  0.4893  -1.4788   0.0000   0.4449
  -4.400   1.1490   0.05962   0.05441  -0.2227  0.3087  0.4939  -1.5123   0.0000   0.4407
  -4.200   1.1709   0.06005   0.05480  -0.2226  0.3032  0.4980  -1.5448   0.0000   0.4367
  -4.000   1.1923   0.06044   0.05517  -0.2225  0.2991  0.5017  -1.5770   0.0000   0.4328
  -3.800   1.2133   0.06082   0.05553  -0.2222  0.2959  0.5047  -1.6090   0.0000   0.4290
  -3.600   1.2350   0.06125   0.05595  -0.2221  0.2918  0.5083  -1.6423   0.0000   0.4253
  -3.400   1.2568   0.06169   0.05637  -0.2219  0.2870  0.5122  -1.6770   0.0000   0.4218
  -3.200   1.2780   0.06210   0.05676  -0.2217  0.2824  0.5157  -1.7112   0.0000   0.4184
  -3.000   1.2988   0.06250   0.05714  -0.2214  0.2793  0.5190  -1.7469   0.0000   0.4151
  -2.800   1.3193   0.06288   0.05751  -0.2211  0.2756  0.5220  -1.7823   0.0000   0.4118
  -2.600   1.3395   0.06327   0.05787  -0.2207  0.2714  0.5250  -1.8177   0.0000   0.4087
  -2.400   1.3603   0.06370   0.05827  -0.2204  0.2669  0.5287  -1.8540   0.0000   0.4057
  -2.200   1.3810   0.06411   0.05869  -0.2201  0.2645  0.5323  -1.8918   0.0000   0.4027
  -2.000   1.4011   0.06450   0.05908  -0.2197  0.2618  0.5355  -1.9293   0.0000   0.3998
  -1.800   1.4209   0.06488   0.05945  -0.2192  0.2583  0.5385  -1.9666   0.0000   0.3970
  -1.600   1.4403   0.06526   0.05980  -0.2187  0.2544  0.5413  -2.0037   0.0000   0.3943
  -1.400   1.4597   0.06565   0.06016  -0.2182  0.2503  0.5440  -2.0409   0.0000   0.3916
  -1.200   1.4797   0.06606   0.06058  -0.2177  0.2483  0.5476  -2.0790   0.0000   0.3890
  -1.000   1.4994   0.06646   0.06099  -0.2173  0.2458  0.5511  -2.1170   0.0000   0.3864
  -0.800   1.5188   0.06685   0.06138  -0.2167  0.2429  0.5543  -2.1548   0.0000   0.3839
  -0.600   1.5377   0.06725   0.06176  -0.2161  0.2394  0.5572  -2.1946   0.0000   0.3814
  -0.400   1.5564   0.06765   0.06213  -0.2155  0.2352  0.5598  -2.2354   0.0000   0.3790
  -0.200   1.5753   0.06804   0.06252  -0.2149  0.2325  0.5621  -2.2767   0.0000   0.3767
   0.000   1.5938   0.06842   0.06291  -0.2142  0.2296  0.5652  -2.3178   0.0000   0.3744
   0.200   1.6123   0.06882   0.06331  -0.2136  0.2264  0.5685  -2.3589   0.0000   0.3721
   0.400   1.6305   0.06923   0.06371  -0.2129  0.2233  0.5718  -2.4001   0.0000   0.3699
   0.600   1.6486   0.06965   0.06412  -0.2122  0.2200  0.5748  -2.4412   0.0000   0.3677
   0.800   1.6669   0.07007   0.06453  -0.2115  0.2178  0.5775  -2.4830   0.0000   0.3655
   1.000   1.6851   0.07048   0.06495  -0.2107  0.2152  0.5797  -2.5282   0.0000   0.3634
   1.200   1.7022   0.07088   0.06535  -0.2099  0.2119  0.5823  -2.5725   0.0000   0.3613
   1.400   1.7188   0.07128   0.06574  -0.2089  0.2084  0.5853  -2.6162   0.0000   0.3593
   1.600   1.7352   0.07171   0.06616  -0.2080  0.2048  0.5882  -2.6598   0.0000   0.3572
   1.800   1.7521   0.07215   0.06662  -0.2071  0.2029  0.5911  -2.7042   0.0000   0.3552
   2.000   1.7687   0.07263   0.06710  -0.2062  0.2006  0.5938  -2.7501   0.0000   0.3533
   2.200   1.7851   0.07313   0.06761  -0.2052  0.1977  0.5961  -2.7963   0.0000   0.3513
   2.400   1.8015   0.07367   0.06813  -0.2043  0.1943  0.5983  -2.8428   0.0000   0.3494
   2.600   1.8167   0.07416   0.06861  -0.2032  0.1908  0.6007  -2.8896   0.0000   0.3475
   2.800   1.8317   0.07457   0.06905  -0.2020  0.1888  0.6034  -2.9384   0.0000   0.3456
   3.000   1.8467   0.07501   0.06949  -0.2009  0.1860  0.6059  -2.9873   0.0000   0.3437
   3.200   1.8616   0.07547   0.06995  -0.1997  0.1828  0.6083  -3.0363   0.0000   0.3419
   3.400   1.8763   0.07598   0.07045  -0.1986  0.1794  0.6107  -3.0853   0.0000   0.3401
   3.600   1.8916   0.07650   0.07098  -0.1975  0.1764  0.6133  -3.1396   0.0000   0.3383
   3.800   1.9077   0.07705   0.07153  -0.1966  0.1737  0.6158  -3.1955   0.0000   0.3366
   4.000   1.9236   0.07765   0.07213  -0.1956  0.1703  0.6178  -3.2535   0.0000   0.3349
   4.200   1.9362   0.07813   0.07260  -0.1942  0.1668  0.6198  -3.3061   0.0000   0.3331
   4.400   1.9487   0.07860   0.07307  -0.1927  0.1637  0.6217  -3.3623   0.0000   0.3313
   4.600   1.9619   0.07905   0.07355  -0.1914  0.1613  0.6237  -3.4204   0.0000   0.3296
   4.800   1.9742   0.07962   0.07412  -0.1899  0.1581  0.6257  -3.4774   0.0000   0.3279
   5.000   1.9856   0.08031   0.07481  -0.1884  0.1544  0.6279  -3.5359   0.0000   0.3262
   5.200   1.9975   0.08103   0.07553  -0.1870  0.1512  0.6302  -3.6016   0.0000   0.3245
   5.400   2.0108   0.08171   0.07622  -0.1857  0.1486  0.6326  -3.6704   0.0000   0.3229
   5.600   2.0235   0.08245   0.07696  -0.1845  0.1446  0.6346  -3.7388   0.0000   0.3213
   5.800   2.0351   0.08330   0.07778  -0.1831  0.1399  0.6362  -3.8053   0.0000   0.3196
   6.000   2.0466   0.08390   0.07840  -0.1816  0.1370  0.6378  -3.8736   0.0000   0.3180
   6.200   2.0563   0.08449   0.07900  -0.1799  0.1337  0.6395  -3.9384   0.0000   0.3164
   6.400   2.0652   0.08517   0.07968  -0.1782  0.1306  0.6413  -4.0020   0.0000   0.3147
   6.600   2.0736   0.08596   0.08049  -0.1764  0.1281  0.6432  -4.0666   0.0000   0.3131
   6.800   2.0828   0.08673   0.08129  -0.1748  0.1258  0.6451  -4.1363   0.0000   0.3115
   7.000   2.0919   0.08756   0.08212  -0.1731  0.1227  0.6469  -4.2078   0.0000   0.3099
   7.200   2.1000   0.08850   0.08306  -0.1715  0.1189  0.6486  -4.2804   0.0000   0.3084
   7.400   2.1099   0.08936   0.08394  -0.1700  0.1159  0.6504  -4.3580   0.0000   0.3069
   7.600   2.1194   0.09033   0.08491  -0.1686  0.1124  0.6521  -4.4351   0.0000   0.3054
   7.800   2.1262   0.09163   0.08620  -0.1669  0.1087  0.6538  -4.5064   0.0000   0.3039
   8.000   2.1357   0.09277   0.08736  -0.1656  0.1057  0.6554  -4.5855   0.0000   0.3024
   8.200   2.1408   0.09366   0.08826  -0.1637  0.1026  0.6569  -4.6539   0.0000   0.3009
   8.400   2.1446   0.09471   0.08932  -0.1617  0.0992  0.6582  -4.7205   0.0000   0.2993
   8.600   2.1487   0.09580   0.09044  -0.1598  0.0967  0.6595  -4.7893   0.0000   0.2978
   8.800   2.1529   0.09692   0.09158  -0.1580  0.0937  0.6607  -4.8590   0.0000   0.2964
   9.000   2.1564   0.09812   0.09279  -0.1562  0.0907  0.6619  -4.9291   0.0000   0.2949
   9.200   2.1600   0.09937   0.09407  -0.1545  0.0884  0.6633  -4.9998   0.0000   0.2935
   9.400   2.1638   0.10065   0.09538  -0.1529  0.0858  0.6648  -5.0713   0.0000   0.2921
   9.600   2.1666   0.10210   0.09685  -0.1513  0.0830  0.6664  -5.1399   0.0000   0.2907
   9.800   2.1694   0.10366   0.09843  -0.1499  0.0805  0.6680  -5.2114   0.0000   0.2894
  10.000   2.1732   0.10520   0.09999  -0.1486  0.0778  0.6696  -5.2886   0.0000   0.2882
  10.200   2.1748   0.10701   0.10182  -0.1473  0.0749  0.6710  -5.3590   0.0000   0.2870
  10.400   2.1776   0.10879   0.10363  -0.1462  0.0727  0.6724  -5.4336   0.0000   0.2858
  10.600   2.1809   0.11057   0.10543  -0.1452  0.0701  0.6736  -5.5098   0.0000   0.2847
  10.800   2.1791   0.11242   0.10731  -0.1439  0.0678  0.6745  -5.5685   0.0000   0.2835
  11.000   2.1777   0.11409   0.10903  -0.1427  0.0660  0.6755  -5.6277   0.0000   0.2824
  11.200   2.1767   0.11572   0.11070  -0.1415  0.0640  0.6765  -5.6881   0.0000   0.2813
  11.400   2.1736   0.11760   0.11262  -0.1404  0.0621  0.6774  -5.7415   0.0000   0.2803
  11.600   2.1701   0.11958   0.11464  -0.1395  0.0603  0.6783  -5.7926   0.0000   0.2794
  11.800   2.1686   0.12133   0.11644  -0.1387  0.0587  0.6793  -5.8510   0.0000   0.2784
  12.000   2.1661   0.12327   0.11843  -0.1381  0.0570  0.6803  -5.9050   0.0000   0.2776
  12.200   2.1618   0.12546   0.12066  -0.1376  0.0554  0.6812  -5.9526   0.0000   0.2769
  12.400   2.1587   0.12755   0.12281  -0.1373  0.0540  0.6822  -6.0038   0.0000   0.2761
  12.600   2.1566   0.12959   0.12489  -0.1371  0.0525  0.6832  -6.0582   0.0000   0.2755
  12.800   2.1527   0.13189   0.12724  -0.1372  0.0509  0.6842  -6.1056   0.0000   0.2749
  13.000   2.1472   0.13444   0.12984  -0.1375  0.0494  0.6853  -6.1460   0.0000   0.2745
  13.200   2.1440   0.13676   0.13221  -0.1379  0.0481  0.6864  -6.1948   0.0000   0.2741
  13.400   2.1406   0.13916   0.13467  -0.1385  0.0466  0.6876  -6.2418   0.0000   0.2737
  13.600   2.1360   0.14180   0.13736  -0.1393  0.0451  0.6888  -6.2833   0.0000   0.2735
  13.800   2.1312   0.14455   0.14015  -0.1404  0.0439  0.6901  -6.3231   0.0000   0.2734
  14.000   2.1284   0.14715   0.14282  -0.1416  0.0428  0.6914  -6.3703   0.0000   0.2733
  14.200   2.1234   0.14980   0.14553  -0.1428  0.0416  0.6924  -6.4077   0.0000   0.2733
  14.400   2.1155   0.15239   0.14817  -0.1438  0.0407  0.6931  -6.4326   0.0000   0.2733
  14.600   2.1072   0.15505   0.15089  -0.1451  0.0398  0.6937  -6.4546   0.0000   0.2734
  14.800   2.1003   0.15753   0.15344  -0.1463  0.0390  0.6943  -6.4819   0.0000   0.2734
  15.000   2.0931   0.16010   0.15608  -0.1476  0.0382  0.6949  -6.5064   0.0000   0.2735
  15.200   2.0852   0.16276   0.15881  -0.1492  0.0374  0.6955  -6.5271   0.0000   0.2737
  15.400   2.0770   0.16550   0.16161  -0.1509  0.0366  0.6960  -6.5450   0.0000   0.2740
  15.600   2.0685   0.16827   0.16444  -0.1527  0.0358  0.6966  -6.5608   0.0000   0.2744
  15.800   2.0595   0.17117   0.16740  -0.1547  0.0351  0.6971  -6.5722   0.0000   0.2749
  16.000   2.0521   0.17384   0.17014  -0.1566  0.0345  0.6977  -6.5937   0.0000   0.2752
  16.200   2.0458   0.17635   0.17272  -0.1584  0.0338  0.6984  -6.6200   0.0000   0.2755
  16.400   2.0377   0.17917   0.17560  -0.1606  0.0331  0.6991  -6.6361   0.0000   0.2761
  16.600   2.0291   0.18209   0.17858  -0.1630  0.0324  0.6998  -6.6485   0.0000   0.2767
  16.800   2.0219   0.18484   0.18137  -0.1653  0.0317  0.7007  -6.6666   0.0000   0.2773
  17.000   2.0138   0.18776   0.18436  -0.1678  0.0311  0.7016  -6.6787   0.0000   0.2780
  17.200   2.0093   0.19016   0.18682  -0.1699  0.0305  0.7027  -6.7095   0.0000   0.2784
  17.400   2.0025   0.19299   0.18971  -0.1725  0.0299  0.7037  -6.7258   0.0000   0.2790
  17.600   1.9980   0.19551   0.19227  -0.1748  0.0292  0.7048  -6.7543   0.0000   0.2795
  17.800   1.9906   0.19854   0.19535  -0.1777  0.0286  0.7059  -6.7646   0.0000   0.2804
  18.000   1.9861   0.20117   0.19802  -0.1803  0.0279  0.7070  -6.7908   0.0000   0.2810
  18.200   1.9812   0.20398   0.20089  -0.1832  0.0274  0.7082  -6.8122   0.0000   0.2818
  18.400   1.9798   0.20641   0.20335  -0.1856  0.0268  0.7094  -6.8528   0.0000   0.2822
  18.600   1.9747   0.20904   0.20603  -0.1883  0.0262  0.7102  -6.8733   0.0000   0.2829
  18.800   1.9687   0.21140   0.20844  -0.1907  0.0256  0.7108  -6.8893   0.0000   0.2835
  19.000   1.9633   0.21361   0.21069  -0.1928  0.0250  0.7113  -6.9094   0.0000   0.2839
  19.200   1.9553   0.21628   0.21341  -0.1956  0.0245  0.7117  -6.9108   0.0000   0.2848
  19.400   1.9520   0.21812   0.21528  -0.1974  0.0240  0.7123  -6.9425   0.0000   0.2851
  19.600   1.9474   0.22017   0.21738  -0.1995  0.0235  0.7128  -6.9666   0.0000   0.2855
  19.800   1.9415   0.22247   0.21973  -0.2020  0.0230  0.7134  -6.9823   0.0000   0.2861
  20.000   1.9373   0.22446   0.22176  -0.2041  0.0225  0.7139  -7.0100   0.0000   0.2865
  20.200   1.9312   0.22683   0.22416  -0.2067  0.0220  0.7144  -7.0223   0.0000   0.2873
  20.400   1.9259   0.22905   0.22643  -0.2092  0.0215  0.7150  -7.0395   0.0000   0.2879
  20.600   1.9238   0.23075   0.22816  -0.2110  0.0211  0.7156  -7.0791   0.0000   0.2881
  20.800   1.9207   0.23265   0.23010  -0.2132  0.0207  0.7162  -7.1105   0.0000   0.2884
  21.000   1.9160   0.23485   0.23235  -0.2158  0.0202  0.7168  -7.1284   0.0000   0.2891
  21.200   1.9129   0.23675   0.23427  -0.2180  0.0197  0.7174  -7.1588   0.0000   0.2895
  21.400   1.9096   0.23871   0.23626  -0.2203  0.0193  0.7181  -7.1858   0.0000   0.2900
  21.600   1.9038   0.24113   0.23873  -0.2233  0.0189  0.7188  -7.1921   0.0000   0.2909
  21.800   1.9024   0.24278   0.24042  -0.2253  0.0185  0.7196  -7.2344   0.0000   0.2911
  22.000   1.9011   0.24442   0.24209  -0.2273  0.0181  0.7204  -7.2778   0.0000   0.2912
  22.200   1.8974   0.24655   0.24426  -0.2300  0.0177  0.7213  -7.2990   0.0000   0.2919
  22.400   1.8947   0.24853   0.24627  -0.2326  0.0173  0.7223  -7.3282   0.0000   0.2924
  22.600   1.8931   0.25040   0.24817  -0.2351  0.0169  0.7235  -7.3644   0.0000   0.2928
  22.800   1.8901   0.25270   0.25049  -0.2382  0.0165  0.7249  -7.3852   0.0000   0.2936
  23.000   1.8895   0.25491   0.25274  -0.2413  0.0161  0.7267  -7.4214   0.0000   0.2942
  23.200   1.8889   0.25656   0.25442  -0.2435  0.0157  0.7278  -7.4653   0.0000   0.2944
  23.400   1.8863   0.25807   0.25596  -0.2455  0.0154  0.7282  -7.4978   0.0000   0.2946
  23.600   1.8813   0.26009   0.25802  -0.2482  0.0150  0.7287  -7.5050   0.0000   0.2954
  23.800   1.8776   0.26183   0.25979  -0.2506  0.0146  0.7291  -7.5247   0.0000   0.2958


