xflr5 v6.47

 Calculated polar for: NACA24018_theta30_Ku4.5_Kl0.5_d0.31_delta11.03

 1 1 Reynolds number fixed          Mach number fixed         

 xtrf =   1.000 (top)        1.000 (bottom)
 Mach =   0.000     Re =     0.400 e 6     Ncrit =   5.000

  alpha     CL        CD       CDp       Cm    Top Xtr Bot Xtr   Cpmin    Chinge    XCp    
 ------- -------- --------- --------- -------- ------- ------- -------- --------- ---------
 -14.200  -0.4267   0.05801   0.05304  -0.1101  0.8337  0.0543  -4.0307   0.0000  -0.0418
 -14.000  -0.3968   0.05792   0.05297  -0.1126  0.8315  0.0554  -3.8887   0.0000  -0.0686
 -13.200  -0.2741   0.05821   0.05320  -0.1214  0.8232  0.0605  -3.3307   0.0000  -0.2367
 -13.000  -0.2411   0.05833   0.05333  -0.1238  0.8211  0.0619  -3.1941   0.0000  -0.3114
 -12.800  -0.2079   0.05854   0.05352  -0.1261  0.8198  0.0637  -3.0593   0.0000  -0.4099
 -12.600  -0.1738   0.05882   0.05378  -0.1285  0.8190  0.0656  -2.9245   0.0000  -0.5504
 -12.400  -0.1441   0.05879   0.05378  -0.1304  0.8136  0.0673  -2.8068   0.0000  -0.7259
 -12.200  -0.1121   0.05903   0.05401  -0.1325  0.8118  0.0693  -2.6861   0.0000  -1.0190
 -12.000  -0.0800   0.05928   0.05424  -0.1344  0.8105  0.0715  -2.5674   0.0000  -1.5468
 -11.800  -0.0430   0.05965   0.05464  -0.1373  0.8096  0.0739  -2.4374   0.0000  -3.1493
 -11.600  -0.0077   0.05998   0.05497  -0.1397  0.8089  0.0767  -2.3136   0.0000  -18.9934
 -11.400   0.0164   0.06011   0.05511  -0.1406  0.8035  0.0789  -2.2180   0.0000   9.3193
 -11.200   0.0516   0.06047   0.05549  -0.1431  0.8018  0.0818  -2.0977   0.0000   3.1744
 -11.000   0.0863   0.06069   0.05570  -0.1453  0.8004  0.0853  -1.9867   0.0000   2.0186
 -10.800   0.1280   0.06092   0.05596  -0.1485  0.7993  0.0894  -1.8624   0.0000   1.4643
 -10.600   0.1547   0.06108   0.05612  -0.1496  0.7940  0.0929  -1.7710   0.0000   1.2594
 -10.400   0.1924   0.06132   0.05639  -0.1523  0.7916  0.0975  -1.6589   0.0000   1.0735
 -10.200   0.2275   0.06153   0.05659  -0.1545  0.7903  0.1026  -1.5539   0.0000   0.9540
 -10.000   0.2668   0.06192   0.05702  -0.1574  0.7894  0.1086  -1.4449   0.0000   0.8598
  -9.800   0.2958   0.06239   0.05752  -0.1588  0.7866  0.1141  -1.3595   0.0000   0.8036
  -9.600   0.3256   0.06297   0.05815  -0.1604  0.7831  0.1209  -1.2737   0.0000   0.7568
  -9.400   0.3621   0.06349   0.05870  -0.1630  0.7813  0.1292  -1.1808   0.0000   0.7115
  -9.200   0.4003   0.06398   0.05923  -0.1657  0.7800  0.1394  -1.0887   0.0000   0.6733
  -8.800   0.4649   0.06550   0.06086  -0.1696  0.7726  0.1639  -0.9271   0.0000   0.6212
  -8.600   0.5068   0.06643   0.06188  -0.1730  0.7698  0.1845  -0.8363   0.0000   0.5964
  -8.400   0.5367   0.06803   0.06358  -0.1750  0.7616  0.2062  -0.8228   0.0000   0.5798
  -8.200   0.5427   0.07113   0.06681  -0.1740  0.7303  0.2222  -0.8312   0.0000   0.5735
  -8.000   0.6150   0.07415   0.07007  -0.1825  0.7212  0.2911  -0.8917   0.0000   0.5484
  -7.800   0.6850   0.07659   0.07270  -0.1901  0.7118  0.3638  -0.9527   0.0000   0.5282
  -7.600   0.7331   0.07700   0.07315  -0.1938  0.7035  0.3973  -0.9992   0.0000   0.5142
  -7.400   0.7807   0.07646   0.07259  -0.1970  0.6930  0.4199  -1.0465   0.0000   0.5017
  -7.200   0.8329   0.07514   0.07120  -0.2007  0.6806  0.4375  -1.0998   0.0000   0.4898
  -7.000   0.8953   0.07308   0.06897  -0.2058  0.6639  0.4535  -1.1642   0.0000   0.4784
  -6.800   0.9551   0.07058   0.06619  -0.2105  0.6312  0.4669  -1.2275   0.0000   0.4687
  -6.600   0.9832   0.06996   0.06529  -0.2111  0.5904  0.4743  -1.2629   0.0000   0.4626
  -6.400   0.9969   0.07027   0.06541  -0.2097  0.5580  0.4801  -1.2855   0.0000   0.4579
  -6.200   1.0268   0.07187   0.06680  -0.2111  0.5265  0.4903  -1.3219   0.0000   0.4527
  -6.000   1.0313   0.07174   0.06659  -0.2083  0.5073  0.4942  -1.3367   0.0000   0.4487
  -5.800   1.0430   0.07206   0.06681  -0.2067  0.4878  0.4991  -1.3577   0.0000   0.4445
  -5.600   1.0673   0.07321   0.06782  -0.2072  0.4665  0.5052  -1.3897   0.0000   0.4400
  -5.400   1.0913   0.07427   0.06875  -0.2076  0.4477  0.5097  -1.4215   0.0000   0.4358
  -5.200   1.0998   0.07422   0.06864  -0.2055  0.4351  0.5115  -1.4405   0.0000   0.4320
  -5.000   1.1099   0.07429   0.06864  -0.2036  0.4227  0.5133  -1.4616   0.0000   0.4283
  -4.800   1.1234   0.07448   0.06879  -0.2022  0.4112  0.5154  -1.4868   0.0000   0.4245
  -4.600   1.1387   0.07486   0.06909  -0.2012  0.4001  0.5178  -1.5140   0.0000   0.4209
  -4.400   1.1579   0.07542   0.06960  -0.2008  0.3892  0.5211  -1.5450   0.0000   0.4173
  -4.200   1.1896   0.07682   0.07090  -0.2024  0.3786  0.5264  -1.5882   0.0000   0.4136
  -4.000   1.2089   0.07737   0.07140  -0.2020  0.3701  0.5290  -1.6196   0.0000   0.4103
  -3.800   1.2187   0.07732   0.07132  -0.2001  0.3636  0.5303  -1.6426   0.0000   0.4070
  -3.600   1.2296   0.07725   0.07125  -0.1983  0.3576  0.5316  -1.6673   0.0000   0.4038
  -3.400   1.2414   0.07731   0.07129  -0.1967  0.3510  0.5333  -1.6931   0.0000   0.4007
  -3.200   1.2541   0.07749   0.07142  -0.1953  0.3448  0.5351  -1.7198   0.0000   0.3976
  -3.000   1.2695   0.07772   0.07165  -0.1942  0.3391  0.5373  -1.7493   0.0000   0.3946
  -2.800   1.2873   0.07819   0.07209  -0.1936  0.3329  0.5398  -1.7815   0.0000   0.3917
  -2.600   1.3125   0.07921   0.07305  -0.1942  0.3265  0.5438  -1.8215   0.0000   0.3889
  -2.400   1.3423   0.08043   0.07424  -0.1954  0.3205  0.5481  -1.8665   0.0000   0.3862
  -2.200   1.3516   0.08032   0.07414  -0.1935  0.3162  0.5491  -1.8908   0.0000   0.3835
  -2.000   1.3613   0.08030   0.07410  -0.1916  0.3123  0.5502  -1.9174   0.0000   0.3808
  -1.800   1.3716   0.08038   0.07416  -0.1898  0.3084  0.5514  -1.9449   0.0000   0.3781
  -1.600   1.3837   0.08045   0.07426  -0.1882  0.3049  0.5526  -1.9745   0.0000   0.3755
  -1.400   1.3963   0.08062   0.07443  -0.1868  0.3009  0.5540  -2.0049   0.0000   0.3729
  -1.200   1.4096   0.08087   0.07468  -0.1855  0.2967  0.5555  -2.0361   0.0000   0.3704
  -1.000   1.4237   0.08124   0.07504  -0.1843  0.2927  0.5573  -2.0684   0.0000   0.3680
  -0.600   1.4817   0.08379   0.07756  -0.1867  0.2842  0.5672  -2.1697   0.0000   0.3638
  -0.400   1.4907   0.08378   0.07756  -0.1847  0.2809  0.5680  -2.1978   0.0000   0.3614
  -0.200   1.5001   0.08387   0.07765  -0.1829  0.2775  0.5688  -2.2266   0.0000   0.3591
   0.000   1.5096   0.08402   0.07779  -0.1811  0.2742  0.5696  -2.2555   0.0000   0.3568
   0.200   1.5206   0.08414   0.07794  -0.1794  0.2713  0.5705  -2.2863   0.0000   0.3546
   0.400   1.5322   0.08429   0.07811  -0.1779  0.2682  0.5714  -2.3179   0.0000   0.3524
   0.600   1.5437   0.08450   0.07834  -0.1764  0.2649  0.5724  -2.3496   0.0000   0.3502
   0.800   1.5553   0.08478   0.07862  -0.1749  0.2616  0.5736  -2.3846   0.0000   0.3481
   1.000   1.5670   0.08512   0.07897  -0.1735  0.2586  0.5750  -2.4199   0.0000   0.3460
   1.200   1.5798   0.08554   0.07938  -0.1722  0.2559  0.5768  -2.4568   0.0000   0.3440
   1.400   1.6240   0.08789   0.08174  -0.1758  0.2512  0.5861  -2.5368   0.0000   0.3428
   1.600   1.6338   0.08808   0.08195  -0.1741  0.2482  0.5868  -2.5702   0.0000   0.3408
   1.800   1.6429   0.08830   0.08219  -0.1723  0.2452  0.5874  -2.6033   0.0000   0.3387
   2.000   1.6514   0.08862   0.08251  -0.1705  0.2424  0.5880  -2.6377   0.0000   0.3367
   2.200   1.6599   0.08896   0.08286  -0.1687  0.2399  0.5886  -2.6727   0.0000   0.3348
   2.400   1.6700   0.08919   0.08315  -0.1670  0.2373  0.5894  -2.7098   0.0000   0.3329
   2.600   1.6797   0.08948   0.08347  -0.1654  0.2344  0.5902  -2.7466   0.0000   0.3309
   2.800   1.6890   0.08982   0.08384  -0.1637  0.2312  0.5911  -2.7830   0.0000   0.3291
   3.000   1.6981   0.09024   0.08426  -0.1621  0.2282  0.5921  -2.8193   0.0000   0.3272
   3.200   1.7072   0.09074   0.08477  -0.1605  0.2255  0.5932  -2.8570   0.0000   0.3254
   3.400   1.7181   0.09119   0.08526  -0.1591  0.2230  0.5946  -2.8991   0.0000   0.3236
   3.600   1.7306   0.09170   0.08581  -0.1579  0.2203  0.5963  -2.9462   0.0000   0.3219
   3.800   1.7441   0.09243   0.08658  -0.1570  0.2172  0.5984  -2.9954   0.0000   0.3203
   4.000   1.7778   0.09474   0.08887  -0.1593  0.2126  0.6060  -3.0801   0.0000   0.3194
   4.200   1.7835   0.09529   0.08943  -0.1574  0.2099  0.6065  -3.1168   0.0000   0.3176
   4.400   1.7911   0.09567   0.08985  -0.1556  0.2076  0.6071  -3.1583   0.0000   0.3159
   4.600   1.7990   0.09604   0.09028  -0.1539  0.2051  0.6077  -3.2024   0.0000   0.3142
   4.800   1.8064   0.09649   0.09077  -0.1522  0.2024  0.6084  -3.2492   0.0000   0.3125
   5.000   1.8135   0.09703   0.09133  -0.1505  0.1996  0.6091  -3.2955   0.0000   0.3108
   5.200   1.8195   0.09774   0.09206  -0.1488  0.1968  0.6099  -3.3400   0.0000   0.3092
   5.400   1.8257   0.09851   0.09286  -0.1472  0.1942  0.6108  -3.3850   0.0000   0.3076
   5.600   1.8345   0.09911   0.09351  -0.1458  0.1915  0.6118  -3.4369   0.0000   0.3060
   5.800   1.8428   0.09980   0.09426  -0.1444  0.1885  0.6129  -3.4923   0.0000   0.3045
   6.000   1.8508   0.10062   0.09510  -0.1431  0.1855  0.6142  -3.5471   0.0000   0.3030
   6.200   1.8577   0.10163   0.09613  -0.1418  0.1827  0.6157  -3.6000   0.0000   0.3015
   6.400   1.8660   0.10273   0.09726  -0.1407  0.1800  0.6179  -3.6564   0.0000   0.3001
   6.600   1.8953   0.10490   0.09947  -0.1426  0.1756  0.6253  -3.7662   0.0000   0.2994
   6.800   1.8999   0.10567   0.10028  -0.1410  0.1726  0.6257  -3.8203   0.0000   0.2979
   7.000   1.9032   0.10664   0.10128  -0.1394  0.1698  0.6262  -3.8715   0.0000   0.2965
   7.200   1.9057   0.10770   0.10236  -0.1379  0.1672  0.6267  -3.9210   0.0000   0.2950
   7.400   1.9115   0.10844   0.10317  -0.1365  0.1646  0.6273  -3.9783   0.0000   0.2936
   7.600   1.9160   0.10935   0.10414  -0.1351  0.1618  0.6279  -4.0325   0.0000   0.2922
   7.800   1.9194   0.11041   0.10524  -0.1337  0.1590  0.6286  -4.0845   0.0000   0.2909
   8.000   1.9217   0.11162   0.10648  -0.1324  0.1562  0.6293  -4.1369   0.0000   0.2896
   8.200   1.9245   0.11281   0.10770  -0.1312  0.1537  0.6302  -4.1911   0.0000   0.2884
   8.400   1.9288   0.11384   0.10881  -0.1301  0.1510  0.6312  -4.2511   0.0000   0.2871
   8.600   1.9318   0.11507   0.11009  -0.1291  0.1480  0.6323  -4.3082   0.0000   0.2859
   8.800   1.9337   0.11650   0.11155  -0.1281  0.1450  0.6336  -4.3623   0.0000   0.2848
   9.000   1.9352   0.11808   0.11315  -0.1274  0.1423  0.6351  -4.4155   0.0000   0.2838
   9.200   1.9412   0.11939   0.11454  -0.1268  0.1395  0.6370  -4.4811   0.0000   0.2827
   9.400   1.9473   0.12104   0.11624  -0.1267  0.1362  0.6392  -4.5478   0.0000   0.2818
   9.600   1.9619   0.12392   0.11914  -0.1283  0.1322  0.6443  -4.6421   0.0000   0.2815
   9.800   1.9620   0.12530   0.12058  -0.1276  0.1297  0.6447  -4.6946   0.0000   0.2805
  10.000   1.9625   0.12667   0.12201  -0.1269  0.1269  0.6452  -4.7500   0.0000   0.2795
  10.200   1.9615   0.12821   0.12360  -0.1263  0.1240  0.6456  -4.8009   0.0000   0.2786
  10.400   1.9586   0.13000   0.12543  -0.1259  0.1213  0.6461  -4.8449   0.0000   0.2779
  10.600   1.9569   0.13164   0.12712  -0.1255  0.1190  0.6467  -4.8924   0.0000   0.2771
  10.800   1.9566   0.13310   0.12865  -0.1252  0.1165  0.6473  -4.9447   0.0000   0.2763
  11.000   1.9545   0.13482   0.13043  -0.1250  0.1140  0.6480  -4.9902   0.0000   0.2757
  11.200   1.9510   0.13672   0.13239  -0.1251  0.1116  0.6488  -5.0308   0.0000   0.2751
  11.400   1.9475   0.13868   0.13440  -0.1253  0.1094  0.6495  -5.0705   0.0000   0.2746
  11.600   1.9467   0.14037   0.13615  -0.1255  0.1069  0.6505  -5.1193   0.0000   0.2741
  11.800   1.9446   0.14226   0.13811  -0.1259  0.1042  0.6514  -5.1633   0.0000   0.2737
  12.000   1.9404   0.14450   0.14039  -0.1267  0.1017  0.6523  -5.1987   0.0000   0.2734
  12.200   1.9368   0.14673   0.14268  -0.1276  0.0994  0.6533  -5.2357   0.0000   0.2733
  12.400   1.9359   0.14871   0.14473  -0.1284  0.0967  0.6545  -5.2820   0.0000   0.2730
  12.600   1.9329   0.15099   0.14707  -0.1296  0.0941  0.6557  -5.3200   0.0000   0.2729
  12.800   1.9280   0.15364   0.14975  -0.1312  0.0918  0.6570  -5.3491   0.0000   0.2731
  13.000   1.9275   0.15597   0.15215  -0.1327  0.0894  0.6587  -5.3946   0.0000   0.2732
  13.200   1.9343   0.15917   0.15541  -0.1359  0.0863  0.6632  -5.4676   0.0000   0.2737
  13.400   1.9271   0.16156   0.15785  -0.1373  0.0843  0.6636  -5.4876   0.0000   0.2739
  13.600   1.9200   0.16394   0.16028  -0.1388  0.0824  0.6639  -5.5074   0.0000   0.2741
  13.800   1.9161   0.16587   0.16229  -0.1399  0.0804  0.6644  -5.5403   0.0000   0.2740
  14.000   1.9101   0.16814   0.16462  -0.1415  0.0783  0.6648  -5.5641   0.0000   0.2743
  14.200   1.9030   0.17058   0.16710  -0.1433  0.0764  0.6653  -5.5826   0.0000   0.2746
  14.400   1.8966   0.17295   0.16952  -0.1451  0.0746  0.6658  -5.6033   0.0000   0.2750
  14.600   1.8921   0.17509   0.17173  -0.1467  0.0727  0.6663  -5.6318   0.0000   0.2752
  14.800   1.8870   0.17735   0.17405  -0.1485  0.0707  0.6668  -5.6566   0.0000   0.2755
  15.000   1.8799   0.17995   0.17669  -0.1508  0.0688  0.6673  -5.6703   0.0000   0.2762
  15.200   1.8750   0.18222   0.17901  -0.1527  0.0671  0.6679  -5.6943   0.0000   0.2766
  15.400   1.8709   0.18442   0.18127  -0.1547  0.0652  0.6686  -5.7212   0.0000   0.2769
  15.600   1.8661   0.18674   0.18363  -0.1568  0.0633  0.6693  -5.7440   0.0000   0.2774
  15.800   1.8595   0.18936   0.18628  -0.1593  0.0616  0.6700  -5.7576   0.0000   0.2781
  16.000   1.8568   0.19140   0.18838  -0.1612  0.0600  0.6708  -5.7931   0.0000   0.2784
  16.200   1.8530   0.19364   0.19067  -0.1634  0.0583  0.6716  -5.8218   0.0000   0.2789
  16.400   1.8490   0.19595   0.19301  -0.1657  0.0566  0.6725  -5.8482   0.0000   0.2794
  16.600   1.8436   0.19851   0.19560  -0.1685  0.0552  0.6734  -5.8651   0.0000   0.2802
  16.800   1.8425   0.20046   0.19762  -0.1705  0.0537  0.6747  -5.9062   0.0000   0.2805
  17.000   1.8408   0.20260   0.19980  -0.1728  0.0521  0.6762  -5.9430   0.0000   0.2809
  17.200   1.8379   0.20515   0.20238  -0.1757  0.0506  0.6780  -5.9692   0.0000   0.2817
  17.400   1.8415   0.20806   0.20532  -0.1795  0.0490  0.6818  -6.0243   0.0000   0.2825
  17.600   1.8386   0.20983   0.20715  -0.1814  0.0476  0.6822  -6.0555   0.0000   0.2828
  17.800   1.8346   0.21183   0.20918  -0.1835  0.0463  0.6826  -6.0786   0.0000   0.2832
  18.000   1.8307   0.21381   0.21119  -0.1857  0.0451  0.6830  -6.1020   0.0000   0.2837
  18.200   1.8272   0.21574   0.21315  -0.1878  0.0440  0.6834  -6.1271   0.0000   0.2841
  18.400   1.8246   0.21751   0.21498  -0.1898  0.0429  0.6839  -6.1574   0.0000   0.2844
  18.600   1.8221   0.21927   0.21678  -0.1918  0.0417  0.6843  -6.1880   0.0000   0.2847
  18.800   1.8190   0.22115   0.21869  -0.1940  0.0407  0.6849  -6.2133   0.0000   0.2851
  19.000   1.8150   0.22319   0.22074  -0.1964  0.0397  0.6854  -6.2317   0.0000   0.2857
  19.200   1.8139   0.22475   0.22236  -0.1982  0.0387  0.6860  -6.2690   0.0000   0.2859
  19.400   1.8122   0.22642   0.22407  -0.2002  0.0376  0.6867  -6.3021   0.0000   0.2861
  19.600   1.8091   0.22833   0.22601  -0.2026  0.0366  0.6873  -6.3243   0.0000   0.2866
  19.800   1.8064   0.23018   0.22788  -0.2049  0.0357  0.6880  -6.3484   0.0000   0.2871
  20.000   1.8052   0.23178   0.22952  -0.2069  0.0348  0.6888  -6.3832   0.0000   0.2873
  20.200   1.8039   0.23343   0.23122  -0.2091  0.0339  0.6896  -6.4158   0.0000   0.2875
  20.400   1.8017   0.23524   0.23307  -0.2114  0.0329  0.6906  -6.4407   0.0000   0.2880
  20.600   1.7999   0.23698   0.23482  -0.2137  0.0321  0.6916  -6.4690   0.0000   0.2884
  20.800   1.7987   0.23870   0.23655  -0.2160  0.0314  0.6929  -6.5005   0.0000   0.2887


