xflr5 v6.47

 Calculated polar for: NACA24018_theta30_Ku4.5_Kl0.5_d0.21_delta5.84

 1 1 Reynolds number fixed          Mach number fixed         

 xtrf =   1.000 (top)        1.000 (bottom)
 Mach =   0.000     Re =     2.600 e 6     Ncrit =   5.000

  alpha     CL        CD       CDp       Cm    Top Xtr Bot Xtr   Cpmin    Chinge    XCp    
 ------- -------- --------- --------- -------- ------- ------- -------- --------- ---------
 -15.000  -0.7923   0.02698   0.02274  -0.1141  0.8781  0.0285  -5.8294   0.0000   0.0806
 -14.800  -0.7699   0.02682   0.02257  -0.1148  0.8779  0.0288  -5.6857   0.0000   0.0755
 -14.600  -0.7465   0.02666   0.02241  -0.1156  0.8779  0.0292  -5.5407   0.0000   0.0696
 -14.400  -0.7223   0.02650   0.02226  -0.1167  0.8778  0.0297  -5.3941   0.0000   0.0629
 -14.200  -0.6978   0.02638   0.02215  -0.1177  0.8778  0.0302  -5.2477   0.0000   0.0556
 -14.000  -0.6733   0.02630   0.02207  -0.1186  0.8777  0.0307  -5.1027   0.0000   0.0479
 -13.800  -0.6476   0.02620   0.02198  -0.1197  0.8776  0.0312  -4.9594   0.0000   0.0390
 -13.600  -0.6191   0.02602   0.02181  -0.1212  0.8773  0.0317  -4.8104   0.0000   0.0277
 -13.400  -0.5870   0.02574   0.02153  -0.1233  0.8768  0.0321  -4.6523   0.0000   0.0130
 -13.200  -0.5526   0.02540   0.02119  -0.1257  0.8763  0.0327  -4.4896   0.0000  -0.0051
 -13.000  -0.5164   0.02502   0.02082  -0.1285  0.8760  0.0335  -4.3235   0.0000  -0.0273
 -12.800  -0.4788   0.02460   0.02041  -0.1314  0.8756  0.0345  -4.1557   0.0000  -0.0542
 -12.600  -0.4412   0.02418   0.02000  -0.1344  0.8753  0.0354  -3.9905   0.0000  -0.0856
 -12.400  -0.4048   0.02379   0.01962  -0.1370  0.8750  0.0360  -3.8314   0.0000  -0.1211
 -11.800  -0.3163   0.02325   0.01912  -0.1417  0.8710  0.0388  -3.4232   0.0000  -0.2358
 -11.600  -0.2898   0.02318   0.01905  -0.1427  0.8687  0.0396  -3.2984   0.0000  -0.2824
 -11.400  -0.2575   0.02298   0.01887  -0.1447  0.8676  0.0407  -3.1651   0.0000  -0.3555
 -10.200  -0.1121   0.02403   0.02003  -0.1484  0.8539  0.0475  -2.5218   0.0000  -1.1554
 -10.000  -0.1016   0.02480   0.02080  -0.1467  0.8224  0.0483  -2.4527   0.0000  -1.2820
  -9.800  -0.0325   0.02317   0.01916  -0.1547  0.8168  0.0511  -2.2616   0.0000  -4.7653
  -9.200   0.0551   0.02255   0.01782  -0.1587  0.6572  0.0562  -1.9554   0.0000   3.2647
  -9.000   0.0776   0.02278   0.01795  -0.1589  0.6286  0.0578  -1.8727   0.0000   2.3903
  -8.800   0.1022   0.02297   0.01805  -0.1595  0.6030  0.0596  -1.7874   0.0000   1.8792
  -8.600   0.1279   0.02313   0.01814  -0.1603  0.5786  0.0621  -1.7010   0.0000   1.5559
  -8.400   0.1538   0.02327   0.01820  -0.1611  0.5575  0.0644  -1.6155   0.0000   1.3389
  -8.200   0.1814   0.02341   0.01830  -0.1622  0.5404  0.0675  -1.5283   0.0000   1.1779
  -8.000   0.2083   0.02353   0.01837  -0.1632  0.5246  0.0701  -1.4438   0.0000   1.0613
  -7.800   0.2362   0.02364   0.01844  -0.1643  0.5087  0.0734  -1.3590   0.0000   0.9693
  -7.600   0.2633   0.02374   0.01848  -0.1652  0.4920  0.0762  -1.2769   0.0000   0.8980
  -7.200   0.3186   0.02400   0.01863  -0.1674  0.4576  0.0845  -1.1237   0.0000   0.7905
  -7.000   0.3460   0.02415   0.01875  -0.1684  0.4435  0.0890  -1.0524   0.0000   0.7499
  -6.800   0.3741   0.02431   0.01888  -0.1696  0.4291  0.0949  -0.9813   0.0000   0.7148
  -6.600   0.4015   0.02447   0.01899  -0.1706  0.4136  0.1006  -0.9123   0.0000   0.6850
  -6.400   0.4291   0.02464   0.01913  -0.1717  0.4009  0.1070  -0.8469   0.0000   0.6588
  -6.200   0.4575   0.02483   0.01930  -0.1728  0.3906  0.1147  -0.8472   0.0000   0.6354
  -6.000   0.4860   0.02502   0.01947  -0.1740  0.3785  0.1233  -0.8755   0.0000   0.6148
  -5.800   0.5151   0.02523   0.01968  -0.1754  0.3685  0.1338  -0.9044   0.0000   0.5962
  -5.600   0.5442   0.02545   0.01987  -0.1767  0.3570  0.1455  -0.9336   0.0000   0.5796
  -5.400   0.5746   0.02569   0.02013  -0.1782  0.3499  0.1606  -0.9651   0.0000   0.5644
  -5.200   0.6059   0.02595   0.02039  -0.1800  0.3407  0.1798  -0.9974   0.0000   0.5506
  -5.000   0.6416   0.02630   0.02080  -0.1825  0.3337  0.2103  -1.0333   0.0000   0.5374
  -4.800   0.6846   0.02680   0.02138  -0.1865  0.3244  0.2608  -1.0761   0.0000   0.5247
  -4.600   0.7306   0.02740   0.02209  -0.1911  0.3180  0.3191  -1.1218   0.0000   0.5132
  -4.400   0.7721   0.02792   0.02270  -0.1947  0.3125  0.3636  -1.1644   0.0000   0.5033
  -4.200   0.8047   0.02827   0.02307  -0.1966  0.3065  0.3876  -1.2007   0.0000   0.4950
  -4.000   0.8351   0.02859   0.02340  -0.1981  0.3017  0.4053  -1.2355   0.0000   0.4875
  -3.800   0.8648   0.02891   0.02373  -0.1994  0.2977  0.4213  -1.2701   0.0000   0.4805
  -3.600   0.8958   0.02924   0.02406  -0.2010  0.2918  0.4400  -1.3059   0.0000   0.4739
  -3.400   0.9250   0.02954   0.02436  -0.2023  0.2855  0.4556  -1.3405   0.0000   0.4677
  -3.200   0.9573   0.02994   0.02478  -0.2040  0.2825  0.4758  -1.3803   0.0000   0.4619
  -3.000   0.9863   0.03026   0.02511  -0.2052  0.2790  0.4910  -1.4182   0.0000   0.4565
  -2.800   1.0155   0.03059   0.02544  -0.2064  0.2749  0.5036  -1.4565   0.0000   0.4513
  -2.600   1.0389   0.03078   0.02561  -0.2066  0.2706  0.5090  -1.4900   0.0000   0.4465
  -2.400   1.0641   0.03104   0.02586  -0.2070  0.2679  0.5146  -1.5253   0.0000   0.4419
  -2.200   1.0890   0.03129   0.02611  -0.2074  0.2651  0.5200  -1.5605   0.0000   0.4375
  -2.000   1.1123   0.03151   0.02631  -0.2075  0.2610  0.5243  -1.5946   0.0000   0.4333
  -1.800   1.1346   0.03170   0.02646  -0.2075  0.2560  0.5276  -1.6279   0.0000   0.4293
  -1.600   1.1572   0.03191   0.02665  -0.2074  0.2524  0.5309  -1.6640   0.0000   0.4254
  -1.400   1.1824   0.03220   0.02695  -0.2079  0.2504  0.5365  -1.7033   0.0000   0.4217
  -1.200   1.2063   0.03245   0.02720  -0.2081  0.2479  0.5417  -1.7416   0.0000   0.4180
  -1.000   1.2288   0.03268   0.02741  -0.2080  0.2450  0.5458  -1.7788   0.0000   0.4146
  -0.800   1.2503   0.03289   0.02760  -0.2078  0.2418  0.5488  -1.8152   0.0000   0.4112
  -0.600   1.2736   0.03314   0.02784  -0.2079  0.2380  0.5528  -1.8535   0.0000   0.4079
  -0.400   1.2975   0.03343   0.02813  -0.2081  0.2361  0.5574  -1.8927   0.0000   0.4048
  -0.200   1.3204   0.03369   0.02839  -0.2081  0.2335  0.5617  -1.9311   0.0000   0.4017
   0.000   1.3423   0.03393   0.02861  -0.2080  0.2299  0.5659  -1.9688   0.0000   0.3987
   0.200   1.3633   0.03416   0.02881  -0.2076  0.2260  0.5691  -2.0056   0.0000   0.3958
   0.400   1.3869   0.03446   0.02910  -0.2078  0.2224  0.5738  -2.0462   0.0000   0.3930
   0.600   1.4100   0.03475   0.02940  -0.2078  0.2204  0.5784  -2.0901   0.0000   0.3903
   0.800   1.4317   0.03501   0.02966  -0.2076  0.2176  0.5823  -2.1332   0.0000   0.3876
   1.000   1.4526   0.03527   0.02990  -0.2073  0.2146  0.5857  -2.1755   0.0000   0.3850
   1.200   1.4729   0.03551   0.03012  -0.2068  0.2115  0.5888  -2.2174   0.0000   0.3825
   1.400   1.4952   0.03582   0.03042  -0.2067  0.2085  0.5931  -2.2617   0.0000   0.3800
   1.600   1.5179   0.03614   0.03075  -0.2067  0.2068  0.5979  -2.3069   0.0000   0.3776
   1.800   1.5392   0.03643   0.03104  -0.2064  0.2044  0.6019  -2.3507   0.0000   0.3752
   2.000   1.5595   0.03670   0.03131  -0.2060  0.2012  0.6055  -2.3935   0.0000   0.3729
   2.200   1.5790   0.03698   0.03156  -0.2054  0.1973  0.6085  -2.4356   0.0000   0.3706
   2.400   1.5998   0.03729   0.03187  -0.2051  0.1943  0.6121  -2.4800   0.0000   0.3684
   2.600   1.6217   0.03764   0.03222  -0.2049  0.1919  0.6164  -2.5272   0.0000   0.3663
   2.800   1.6423   0.03796   0.03254  -0.2045  0.1888  0.6201  -2.5738   0.0000   0.3641
   3.000   1.6617   0.03828   0.03284  -0.2039  0.1852  0.6233  -2.6204   0.0000   0.3620
   3.200   1.6808   0.03859   0.03314  -0.2033  0.1819  0.6263  -2.6683   0.0000   0.3599
   3.400   1.7000   0.03888   0.03343  -0.2026  0.1799  0.6289  -2.7178   0.0000   0.3578
   3.600   1.7202   0.03923   0.03378  -0.2022  0.1772  0.6326  -2.7696   0.0000   0.3559
   3.800   1.7403   0.03963   0.03416  -0.2017  0.1736  0.6365  -2.8218   0.0000   0.3539
   4.000   1.7594   0.04001   0.03453  -0.2011  0.1698  0.6403  -2.8764   0.0000   0.3520
   4.200   1.7785   0.04035   0.03488  -0.2005  0.1680  0.6438  -2.9314   0.0000   0.3501
   4.400   1.7967   0.04069   0.03523  -0.1997  0.1653  0.6467  -2.9854   0.0000   0.3481
   4.600   1.8137   0.04108   0.03558  -0.1987  0.1612  0.6489  -3.0380   0.0000   0.3462
   4.800   1.8311   0.04148   0.03598  -0.1978  0.1571  0.6512  -3.0913   0.0000   0.3444
   5.000   1.8496   0.04191   0.03641  -0.1971  0.1543  0.6544  -3.1516   0.0000   0.3425
   5.200   1.8671   0.04239   0.03688  -0.1962  0.1513  0.6578  -3.2118   0.0000   0.3407
   5.400   1.8832   0.04291   0.03739  -0.1951  0.1476  0.6610  -3.2701   0.0000   0.3389
   5.600   1.8998   0.04337   0.03786  -0.1941  0.1452  0.6639  -3.3295   0.0000   0.3371
   5.800   1.9155   0.04385   0.03834  -0.1929  0.1418  0.6663  -3.3879   0.0000   0.3353
   6.000   1.9298   0.04440   0.03886  -0.1916  0.1372  0.6682  -3.4442   0.0000   0.3335
   6.200   1.9452   0.04488   0.03933  -0.1904  0.1342  0.6699  -3.5111   0.0000   0.3317
   6.400   1.9615   0.04542   0.03988  -0.1894  0.1312  0.6732  -3.5803   0.0000   0.3300
   6.600   1.9768   0.04601   0.04046  -0.1882  0.1278  0.6762  -3.6479   0.0000   0.3283
   6.800   1.9920   0.04656   0.04102  -0.1870  0.1250  0.6789  -3.7177   0.0000   0.3266
   7.000   2.0067   0.04712   0.04158  -0.1857  0.1218  0.6813  -3.7884   0.0000   0.3249
   7.200   2.0190   0.04785   0.04228  -0.1841  0.1173  0.6837  -3.8585   0.0000   0.3232
   7.400   2.0316   0.04854   0.04298  -0.1826  0.1139  0.6859  -3.9329   0.0000   0.3215
   7.600   2.0428   0.04934   0.04376  -0.1808  0.1097  0.6877  -4.0089   0.0000   0.3197
   7.800   2.0546   0.05008   0.04449  -0.1792  0.1062  0.6891  -4.0869   0.0000   0.3180
   8.000   2.0662   0.05084   0.04525  -0.1776  0.1023  0.6909  -4.1648   0.0000   0.3164
   8.200   2.0774   0.05166   0.04606  -0.1759  0.0987  0.6931  -4.2424   0.0000   0.3147
   8.400   2.0895   0.05240   0.04682  -0.1744  0.0961  0.6953  -4.3228   0.0000   0.3131
   8.600   2.0987   0.05338   0.04779  -0.1724  0.0930  0.6973  -4.3967   0.0000   0.3114
   8.800   2.1084   0.05431   0.04873  -0.1706  0.0904  0.6996  -4.4724   0.0000   0.3097
   9.000   2.1189   0.05518   0.04961  -0.1689  0.0878  0.7018  -4.5503   0.0000   0.3081
   9.200   2.1276   0.05619   0.05062  -0.1671  0.0847  0.7037  -4.6244   0.0000   0.3064
   9.400   2.1364   0.05721   0.05165  -0.1652  0.0822  0.7054  -4.6992   0.0000   0.3048
   9.600   2.1432   0.05841   0.05285  -0.1632  0.0791  0.7069  -4.7757   0.0000   0.3032
   9.800   2.1503   0.05958   0.05403  -0.1612  0.0761  0.7082  -4.8548   0.0000   0.3016
  10.000   2.1576   0.06074   0.05520  -0.1593  0.0732  0.7094  -4.9350   0.0000   0.3000
  10.200   2.1612   0.06220   0.05666  -0.1570  0.0704  0.7114  -5.0055   0.0000   0.2983
  10.400   2.1680   0.06339   0.05789  -0.1551  0.0681  0.7133  -5.0878   0.0000   0.2968
  10.600   2.1720   0.06485   0.05936  -0.1530  0.0655  0.7149  -5.1625   0.0000   0.2952
  10.800   2.1761   0.06631   0.06084  -0.1509  0.0635  0.7164  -5.2380   0.0000   0.2936
  11.000   2.1810   0.06771   0.06227  -0.1491  0.0615  0.7180  -5.3157   0.0000   0.2921
  11.200   2.1826   0.06946   0.06403  -0.1469  0.0593  0.7195  -5.3844   0.0000   0.2906
  11.400   2.1862   0.07105   0.06565  -0.1451  0.0575  0.7211  -5.4588   0.0000   0.2892
  11.600   2.1883   0.07282   0.06745  -0.1432  0.0554  0.7227  -5.5290   0.0000   0.2878
  11.800   2.1884   0.07482   0.06948  -0.1413  0.0534  0.7240  -5.5936   0.0000   0.2864
  12.000   2.1901   0.07670   0.07139  -0.1396  0.0518  0.7253  -5.6627   0.0000   0.2850
  12.200   2.1904   0.07875   0.07348  -0.1380  0.0502  0.7263  -5.7287   0.0000   0.2837
  12.400   2.1896   0.08092   0.07568  -0.1364  0.0487  0.7272  -5.7924   0.0000   0.2825
  12.600   2.1910   0.08289   0.07769  -0.1351  0.0476  0.7279  -5.8631   0.0000   0.2813
  12.800   2.1900   0.08511   0.07995  -0.1337  0.0463  0.7289  -5.9257   0.0000   0.2802
  13.000   2.1869   0.08754   0.08243  -0.1324  0.0449  0.7303  -5.9811   0.0000   0.2791
  13.200   2.1850   0.08988   0.08481  -0.1313  0.0437  0.7318  -6.0399   0.0000   0.2780
  13.400   2.1837   0.09216   0.08714  -0.1303  0.0425  0.7332  -6.1005   0.0000   0.2771
  13.600   2.1796   0.09479   0.08982  -0.1295  0.0412  0.7345  -6.1512   0.0000   0.2762
  13.800   2.1740   0.09762   0.09271  -0.1288  0.0399  0.7357  -6.1959   0.0000   0.2754
  14.000   2.1708   0.10018   0.09532  -0.1283  0.0389  0.7368  -6.2522   0.0000   0.2747
  14.200   2.1669   0.10284   0.09803  -0.1279  0.0379  0.7379  -6.3062   0.0000   0.2740
  14.400   2.1618   0.10566   0.10091  -0.1277  0.0369  0.7389  -6.3550   0.0000   0.2734
  14.600   2.1557   0.10865   0.10395  -0.1277  0.0360  0.7398  -6.3988   0.0000   0.2729
  14.800   2.1511   0.11147   0.10683  -0.1279  0.0353  0.7408  -6.4479   0.0000   0.2725
  15.000   2.1456   0.11443   0.10985  -0.1282  0.0345  0.7417  -6.4925   0.0000   0.2721
  15.200   2.1390   0.11755   0.11303  -0.1287  0.0336  0.7427  -6.5319   0.0000   0.2719
  15.400   2.1313   0.12085   0.11638  -0.1295  0.0328  0.7436  -6.5655   0.0000   0.2718
  15.600   2.1248   0.12400   0.11959  -0.1304  0.0321  0.7445  -6.6028   0.0000   0.2717
  15.800   2.1197   0.12695   0.12260  -0.1313  0.0315  0.7453  -6.6453   0.0000   0.2716
  16.000   2.1128   0.13018   0.12590  -0.1324  0.0309  0.7460  -6.6789   0.0000   0.2716
  16.200   2.1047   0.13358   0.12936  -0.1338  0.0303  0.7466  -6.7063   0.0000   0.2718
  16.400   2.0957   0.13710   0.13294  -0.1354  0.0297  0.7470  -6.7284   0.0000   0.2721
  16.600   2.0857   0.14065   0.13655  -0.1371  0.0291  0.7479  -6.7452   0.0000   0.2725
  16.800   2.0785   0.14380   0.13977  -0.1387  0.0287  0.7489  -6.7732   0.0000   0.2728
  17.000   2.0713   0.14696   0.14300  -0.1403  0.0282  0.7498  -6.8003   0.0000   0.2731
  17.200   2.0622   0.15044   0.14655  -0.1423  0.0277  0.7507  -6.8169   0.0000   0.2736
  17.400   2.0527   0.15397   0.15014  -0.1444  0.0271  0.7515  -6.8304   0.0000   0.2742
  17.600   2.0439   0.15738   0.15362  -0.1466  0.0266  0.7524  -6.8460   0.0000   0.2748
  17.800   2.0341   0.16096   0.15726  -0.1489  0.0260  0.7532  -6.8551   0.0000   0.2755
  18.000   2.0244   0.16453   0.16089  -0.1514  0.0256  0.7541  -6.8635   0.0000   0.2763
  18.200   2.0180   0.16759   0.16401  -0.1535  0.0252  0.7551  -6.8872   0.0000   0.2768
  18.400   2.0102   0.17087   0.16735  -0.1559  0.0248  0.7561  -6.9027   0.0000   0.2775
  18.600   2.0017   0.17428   0.17082  -0.1585  0.0243  0.7571  -6.9133   0.0000   0.2783
  18.800   1.9953   0.17735   0.17393  -0.1608  0.0238  0.7581  -6.9338   0.0000   0.2790
  19.000   1.9857   0.18095   0.17760  -0.1637  0.0234  0.7589  -6.9353   0.0000   0.2800
  19.200   1.9801   0.18390   0.18059  -0.1661  0.0229  0.7598  -6.9578   0.0000   0.2807
  19.400   1.9725   0.18720   0.18395  -0.1689  0.0226  0.7606  -6.9714   0.0000   0.2816
  19.600   1.9689   0.18983   0.18662  -0.1710  0.0222  0.7614  -7.0077   0.0000   0.2821
  19.800   1.9621   0.19301   0.18985  -0.1738  0.0219  0.7621  -7.0236   0.0000   0.2830
  20.000   1.9577   0.19576   0.19264  -0.1762  0.0214  0.7628  -7.0533   0.0000   0.2836
  20.200   1.9529   0.19856   0.19548  -0.1788  0.0210  0.7634  -7.0800   0.0000   0.2843
  20.400   1.9457   0.20178   0.19874  -0.1818  0.0206  0.7641  -7.0902   0.0000   0.2854
  20.600   1.9422   0.20436   0.20136  -0.1842  0.0201  0.7647  -7.1229   0.0000   0.2859
  20.800   1.9359   0.20739   0.20445  -0.1871  0.0198  0.7653  -7.1368   0.0000   0.2869
  21.000   1.9331   0.20971   0.20680  -0.1892  0.0195  0.7664  -7.1736   0.0000   0.2873
  21.200   1.9300   0.21207   0.20920  -0.1914  0.0190  0.7675  -7.2081   0.0000   0.2878
  21.400   1.9230   0.21513   0.21231  -0.1945  0.0186  0.7683  -7.2149   0.0000   0.2889
  21.600   1.9195   0.21756   0.21477  -0.1969  0.0182  0.7692  -7.2448   0.0000   0.2895
  21.800   1.9133   0.22049   0.21775  -0.1999  0.0178  0.7699  -7.2541   0.0000   0.2905
  22.000   1.9099   0.22290   0.22020  -0.2023  0.0174  0.7707  -7.2828   0.0000   0.2912
  22.200   1.9082   0.22499   0.22232  -0.2044  0.0171  0.7715  -7.3233   0.0000   0.2915
  22.400   1.9035   0.22764   0.22501  -0.2072  0.0168  0.7723  -7.3405   0.0000   0.2924
  22.600   1.9001   0.23005   0.22745  -0.2098  0.0164  0.7731  -7.3666   0.0000   0.2931
  22.800   1.8981   0.23219   0.22962  -0.2121  0.0161  0.7739  -7.4027   0.0000   0.2935
  23.000   1.8928   0.23495   0.23242  -0.2151  0.0158  0.7746  -7.4123   0.0000   0.2945
  23.200   1.8894   0.23736   0.23487  -0.2178  0.0155  0.7754  -7.4352   0.0000   0.2953
  23.400   1.8885   0.23930   0.23683  -0.2199  0.0152  0.7762  -7.4771   0.0000   0.2956
  23.600   1.8856   0.24161   0.23919  -0.2225  0.0150  0.7771  -7.5026   0.0000   0.2963
  23.800   1.8824   0.24396   0.24157  -0.2252  0.0148  0.7779  -7.5254   0.0000   0.2970
  24.000   1.8816   0.24587   0.24350  -0.2274  0.0145  0.7788  -7.5663   0.0000   0.2973
  24.200   1.8800   0.24790   0.24556  -0.2298  0.0143  0.7796  -7.6009   0.0000   0.2978
  24.400   1.8749   0.25061   0.24832  -0.2331  0.0140  0.7802  -7.6046   0.0000   0.2989
  24.600   1.8735   0.25261   0.25034  -0.2355  0.0137  0.7809  -7.6384   0.0000   0.2993
  24.800   1.8717   0.25465   0.25241  -0.2379  0.0135  0.7814  -7.6691   0.0000   0.2998
  25.000   1.8664   0.25739   0.25518  -0.2413  0.0132  0.7818  -7.6671   0.0000   0.3010


