xflr5 v6.47

 Calculated polar for: NACA24018_theta30_Ku4.5_Kl0.5_d0.24_delta7.31

 1 1 Reynolds number fixed          Mach number fixed         

 xtrf =   1.000 (top)        1.000 (bottom)
 Mach =   0.000     Re =     2.000 e 6     Ncrit =   5.000

  alpha     CL        CD       CDp       Cm    Top Xtr Bot Xtr   Cpmin    Chinge    XCp    
 ------- -------- --------- --------- -------- ------- ------- -------- --------- ---------
 -15.000  -0.6200   0.03181   0.02760  -0.1292  0.8553  0.0326  -5.1908   0.0000   0.0120
 -14.800  -0.5946   0.03175   0.02754  -0.1305  0.8553  0.0332  -5.0427   0.0000   0.0005
 -14.600  -0.5688   0.03170   0.02750  -0.1318  0.8553  0.0338  -4.8951   0.0000  -0.0123
 -14.400  -0.5427   0.03169   0.02750  -0.1331  0.8553  0.0344  -4.7528   0.0000  -0.0265
 -14.200  -0.5166   0.03171   0.02752  -0.1344  0.8553  0.0351  -4.6118   0.0000  -0.0419
 -14.000  -0.4907   0.03175   0.02757  -0.1356  0.8553  0.0358  -4.4728   0.0000  -0.0587
 -13.800  -0.4648   0.03181   0.02763  -0.1367  0.8553  0.0363  -4.3351   0.0000  -0.0774
 -13.600  -0.4379   0.03187   0.02770  -0.1380  0.8552  0.0369  -4.1968   0.0000  -0.0994
 -13.400  -0.4104   0.03195   0.02780  -0.1394  0.8552  0.0377  -4.0578   0.0000  -0.1253
 -13.200  -0.3799   0.03193   0.02779  -0.1413  0.8552  0.0386  -3.9117   0.0000  -0.1591
 -13.000  -0.3452   0.03177   0.02763  -0.1437  0.8550  0.0395  -3.7555   0.0000  -0.2059
 -12.800  -0.3335   0.03211   0.02798  -0.1426  0.8518  0.0400  -3.6661   0.0000  -0.2174
 -12.600  -0.3044   0.03200   0.02788  -0.1441  0.8499  0.0408  -3.5291   0.0000  -0.2655
 -12.400  -0.2682   0.03174   0.02764  -0.1467  0.8489  0.0421  -3.3800   0.0000  -0.3432
 -12.200  -0.2311   0.03144   0.02734  -0.1494  0.8481  0.0432  -3.2318   0.0000  -0.4481
  -9.600   0.1049   0.03484   0.03099  -0.1612  0.7969  0.0621  -1.8702   0.0000   1.8591
  -9.400   0.1731   0.03301   0.02912  -0.1684  0.7871  0.0657  -1.7007   0.0000   1.2648
  -9.200   0.2760   0.02962   0.02562  -0.1815  0.7738  0.0724  -1.4836   0.0000   0.9325
  -9.000   0.2827   0.03042   0.02595  -0.1791  0.6764  0.0748  -1.4359   0.0000   0.9066
  -8.800   0.2993   0.03109   0.02648  -0.1784  0.6402  0.0776  -1.3722   0.0000   0.8669
  -8.600   0.3214   0.03157   0.02686  -0.1786  0.6120  0.0806  -1.3003   0.0000   0.8243
  -8.400   0.3449   0.03199   0.02718  -0.1790  0.5844  0.0842  -1.2271   0.0000   0.7855
  -8.200   0.3696   0.03235   0.02745  -0.1796  0.5589  0.0881  -1.1531   0.0000   0.7506
  -8.000   0.3956   0.03267   0.02768  -0.1804  0.5343  0.0930  -1.0783   0.0000   0.7190
  -7.800   0.4227   0.03296   0.02790  -0.1814  0.5120  0.0980  -1.0078   0.0000   0.6906
  -7.600   0.4493   0.03321   0.02808  -0.1823  0.4916  0.1027  -0.9414   0.0000   0.6659
  -7.400   0.4776   0.03352   0.02833  -0.1835  0.4724  0.1100  -0.8737   0.0000   0.6431
  -7.200   0.5057   0.03384   0.02861  -0.1847  0.4570  0.1178  -0.8439   0.0000   0.6230
  -7.000   0.5336   0.03416   0.02889  -0.1858  0.4412  0.1261  -0.8714   0.0000   0.6050
  -6.600   0.5917   0.03488   0.02954  -0.1884  0.4100  0.1489  -0.9309   0.0000   0.5736
  -6.400   0.6246   0.03534   0.03000  -0.1905  0.3968  0.1683  -0.9638   0.0000   0.5593
  -6.200   0.6572   0.03582   0.03047  -0.1924  0.3850  0.1894  -0.9967   0.0000   0.5465
  -6.000   0.6924   0.03637   0.03105  -0.1948  0.3740  0.2157  -1.0317   0.0000   0.5344
  -5.800   0.7351   0.03716   0.03190  -0.1986  0.3625  0.2624  -1.0723   0.0000   0.5226
  -5.600   0.7886   0.03832   0.03316  -0.2044  0.3488  0.3344  -1.1214   0.0000   0.5110
  -5.400   0.8250   0.03899   0.03386  -0.2070  0.3396  0.3667  -1.1608   0.0000   0.5022
  -5.200   0.8567   0.03953   0.03439  -0.2087  0.3309  0.3882  -1.1975   0.0000   0.4944
  -5.000   0.8880   0.04007   0.03493  -0.2103  0.3244  0.4070  -1.2343   0.0000   0.4872
  -4.800   0.9179   0.04056   0.03541  -0.2117  0.3176  0.4227  -1.2701   0.0000   0.4806
  -4.600   0.9460   0.04101   0.03585  -0.2127  0.3128  0.4331  -1.3047   0.0000   0.4744
  -4.400   0.9713   0.04136   0.03620  -0.2132  0.3089  0.4430  -1.3373   0.0000   0.4686
  -4.200   1.0017   0.04190   0.03675  -0.2146  0.3037  0.4598  -1.3743   0.0000   0.4630
  -3.800   1.0627   0.04302   0.03787  -0.2174  0.2935  0.4925  -1.4505   0.0000   0.4527
  -3.600   1.0860   0.04334   0.03817  -0.2175  0.2894  0.4988  -1.4836   0.0000   0.4480
  -3.400   1.1097   0.04367   0.03847  -0.2177  0.2851  0.5030  -1.5173   0.0000   0.4436
  -3.000   1.1574   0.04437   0.03914  -0.2182  0.2775  0.5123  -1.5855   0.0000   0.4352
  -2.800   1.1794   0.04465   0.03941  -0.2180  0.2739  0.5158  -1.6182   0.0000   0.4313
  -2.600   1.2006   0.04492   0.03965  -0.2178  0.2697  0.5189  -1.6525   0.0000   0.4275
  -2.400   1.2246   0.04529   0.03999  -0.2180  0.2648  0.5236  -1.6905   0.0000   0.4238
  -2.200   1.2478   0.04564   0.04034  -0.2181  0.2620  0.5280  -1.7279   0.0000   0.4203
  -2.000   1.2697   0.04595   0.04065  -0.2180  0.2594  0.5318  -1.7644   0.0000   0.4169
  -1.800   1.2909   0.04623   0.04092  -0.2177  0.2566  0.5351  -1.8003   0.0000   0.4135
  -1.600   1.3115   0.04650   0.04116  -0.2173  0.2533  0.5377  -1.8357   0.0000   0.4103
  -1.400   1.3337   0.04683   0.04147  -0.2172  0.2491  0.5413  -1.8729   0.0000   0.4072
  -1.200   1.3561   0.04718   0.04182  -0.2172  0.2463  0.5452  -1.9117   0.0000   0.4041
  -1.000   1.3779   0.04751   0.04215  -0.2170  0.2437  0.5493  -1.9506   0.0000   0.4012
  -0.800   1.3989   0.04782   0.04245  -0.2167  0.2409  0.5532  -1.9890   0.0000   0.3983
  -0.600   1.4192   0.04810   0.04271  -0.2163  0.2376  0.5563  -2.0266   0.0000   0.3955
  -0.400   1.4402   0.04843   0.04302  -0.2160  0.2336  0.5596  -2.0660   0.0000   0.3928
  -0.200   1.4621   0.04880   0.04339  -0.2159  0.2309  0.5635  -2.1076   0.0000   0.3901
   0.000   1.4836   0.04915   0.04374  -0.2156  0.2286  0.5674  -2.1489   0.0000   0.3875
   0.200   1.5042   0.04949   0.04407  -0.2153  0.2256  0.5713  -2.1896   0.0000   0.3850
   0.400   1.5240   0.04980   0.04436  -0.2148  0.2216  0.5745  -2.2302   0.0000   0.3825
   0.600   1.5433   0.05011   0.04464  -0.2142  0.2172  0.5770  -2.2731   0.0000   0.3800
   0.800   1.5646   0.05049   0.04503  -0.2139  0.2149  0.5806  -2.3187   0.0000   0.3777
   1.000   1.5851   0.05085   0.04540  -0.2135  0.2125  0.5840  -2.3636   0.0000   0.3754
   1.200   1.6049   0.05120   0.04574  -0.2130  0.2098  0.5874  -2.4078   0.0000   0.3731
   1.400   1.6242   0.05154   0.04607  -0.2124  0.2069  0.5907  -2.4516   0.0000   0.3708
   1.600   1.6430   0.05188   0.04639  -0.2118  0.2038  0.5938  -2.4951   0.0000   0.3686
   1.800   1.6619   0.05220   0.04671  -0.2111  0.2020  0.5963  -2.5389   0.0000   0.3664
   2.000   1.6819   0.05258   0.04711  -0.2106  0.2000  0.5999  -2.5844   0.0000   0.3643
   2.200   1.7011   0.05296   0.04749  -0.2101  0.1971  0.6032  -2.6291   0.0000   0.3622
   2.400   1.7196   0.05335   0.04786  -0.2093  0.1932  0.6065  -2.6731   0.0000   0.3602
   2.600   1.7376   0.05373   0.04823  -0.2086  0.1891  0.6098  -2.7176   0.0000   0.3581
   2.800   1.7559   0.05409   0.04859  -0.2078  0.1869  0.6126  -2.7673   0.0000   0.3561
   3.000   1.7736   0.05446   0.04896  -0.2070  0.1843  0.6148  -2.8166   0.0000   0.3542
   3.200   1.7913   0.05487   0.04936  -0.2061  0.1809  0.6175  -2.8661   0.0000   0.3522
   3.400   1.8085   0.05535   0.04982  -0.2053  0.1767  0.6207  -2.9188   0.0000   0.3503
   3.600   1.8259   0.05582   0.05030  -0.2044  0.1743  0.6239  -2.9724   0.0000   0.3484
   3.800   1.8427   0.05629   0.05078  -0.2034  0.1716  0.6270  -3.0255   0.0000   0.3465
   4.000   1.8588   0.05678   0.05127  -0.2024  0.1685  0.6296  -3.0777   0.0000   0.3446
   4.200   1.8743   0.05729   0.05176  -0.2012  0.1647  0.6318  -3.1297   0.0000   0.3428
   4.400   1.8904   0.05776   0.05223  -0.2002  0.1623  0.6338  -3.1865   0.0000   0.3410
   4.600   1.9065   0.05824   0.05272  -0.1991  0.1599  0.6364  -3.2438   0.0000   0.3392
   4.800   1.9222   0.05875   0.05323  -0.1980  0.1565  0.6393  -3.3006   0.0000   0.3374
   5.000   1.9367   0.05930   0.05376  -0.1968  0.1524  0.6419  -3.3558   0.0000   0.3356
   5.200   1.9520   0.05979   0.05426  -0.1956  0.1495  0.6444  -3.4145   0.0000   0.3338
   5.400   1.9669   0.06031   0.05478  -0.1944  0.1464  0.6467  -3.4756   0.0000   0.3321
   5.600   1.9808   0.06090   0.05535  -0.1931  0.1425  0.6489  -3.5387   0.0000   0.3304
   5.800   1.9948   0.06150   0.05594  -0.1918  0.1389  0.6510  -3.6074   0.0000   0.3287
   6.000   2.0088   0.06211   0.05656  -0.1905  0.1355  0.6529  -3.6781   0.0000   0.3270
   6.200   2.0204   0.06287   0.05730  -0.1889  0.1317  0.6549  -3.7455   0.0000   0.3252
   6.400   2.0322   0.06360   0.05804  -0.1873  0.1285  0.6572  -3.8133   0.0000   0.3235
   6.600   2.0448   0.06426   0.05872  -0.1858  0.1260  0.6593  -3.8835   0.0000   0.3218
   6.800   2.0566   0.06497   0.05943  -0.1843  0.1228  0.6614  -3.9524   0.0000   0.3202
   7.000   2.0675   0.06576   0.06021  -0.1826  0.1191  0.6635  -4.0210   0.0000   0.3185
   7.200   2.0799   0.06645   0.06091  -0.1812  0.1166  0.6659  -4.0996   0.0000   0.3169
   7.400   2.0911   0.06724   0.06170  -0.1796  0.1129  0.6680  -4.1759   0.0000   0.3152
   7.600   2.0996   0.06827   0.06272  -0.1777  0.1088  0.6697  -4.2467   0.0000   0.3136
   7.800   2.1093   0.06924   0.06370  -0.1760  0.1053  0.6712  -4.3205   0.0000   0.3119
   8.000   2.1177   0.07032   0.06476  -0.1742  0.1013  0.6725  -4.3954   0.0000   0.3103
   8.200   2.1270   0.07119   0.06565  -0.1724  0.0988  0.6744  -4.4766   0.0000   0.3087
   8.400   2.1362   0.07206   0.06654  -0.1707  0.0962  0.6765  -4.5580   0.0000   0.3071
   8.600   2.1422   0.07322   0.06771  -0.1687  0.0931  0.6784  -4.6321   0.0000   0.3055
   8.800   2.1487   0.07437   0.06886  -0.1667  0.0904  0.6801  -4.7075   0.0000   0.3039
   9.000   2.1556   0.07548   0.06999  -0.1648  0.0870  0.6817  -4.7843   0.0000   0.3023
   9.200   2.1606   0.07678   0.07129  -0.1628  0.0832  0.6832  -4.8566   0.0000   0.3007
   9.400   2.1656   0.07813   0.07266  -0.1609  0.0803  0.6848  -4.9294   0.0000   0.2992
   9.600   2.1696   0.07959   0.07412  -0.1589  0.0771  0.6864  -4.9995   0.0000   0.2976
   9.800   2.1757   0.08087   0.07542  -0.1571  0.0747  0.6880  -5.0756   0.0000   0.2961
  10.000   2.1798   0.08240   0.07697  -0.1553  0.0724  0.6895  -5.1469   0.0000   0.2947
  10.200   2.1835   0.08399   0.07857  -0.1535  0.0700  0.6907  -5.2169   0.0000   0.2932
  10.400   2.1880   0.08552   0.08013  -0.1519  0.0681  0.6917  -5.2897   0.0000   0.2918
  10.600   2.1906   0.08699   0.08164  -0.1500  0.0661  0.6931  -5.3608   0.0000   0.2904
  10.800   2.1911   0.08874   0.08342  -0.1482  0.0641  0.6944  -5.4285   0.0000   0.2890
  11.000   2.1924   0.09044   0.08515  -0.1464  0.0623  0.6957  -5.4986   0.0000   0.2876
  11.200   2.1942   0.09209   0.08684  -0.1449  0.0607  0.6970  -5.5704   0.0000   0.2863
  11.400   2.1939   0.09401   0.08879  -0.1433  0.0588  0.6984  -5.6356   0.0000   0.2851
  11.600   2.1925   0.09607   0.09088  -0.1418  0.0570  0.6998  -5.6970   0.0000   0.2839
  11.800   2.1936   0.09787   0.09273  -0.1405  0.0553  0.7013  -5.7667   0.0000   0.2827
  12.000   2.1918   0.10005   0.09495  -0.1393  0.0533  0.7026  -5.8267   0.0000   0.2816
  12.200   2.1887   0.10242   0.09735  -0.1382  0.0514  0.7038  -5.8817   0.0000   0.2806
  12.400   2.1882   0.10452   0.09949  -0.1373  0.0498  0.7051  -5.9452   0.0000   0.2796
  12.600   2.1864   0.10680   0.10182  -0.1365  0.0482  0.7061  -6.0041   0.0000   0.2787
  12.800   2.1827   0.10934   0.10440  -0.1359  0.0467  0.7071  -6.0559   0.0000   0.2779
  13.000   2.1815   0.11163   0.10673  -0.1355  0.0456  0.7081  -6.1158   0.0000   0.2771
  13.200   2.1798   0.11398   0.10913  -0.1351  0.0443  0.7090  -6.1736   0.0000   0.2764
  13.400   2.1763   0.11656   0.11175  -0.1350  0.0429  0.7098  -6.2244   0.0000   0.2757
  13.600   2.1718   0.11921   0.11445  -0.1350  0.0417  0.7106  -6.2708   0.0000   0.2752
  13.800   2.1673   0.12164   0.11694  -0.1349  0.0407  0.7118  -6.3163   0.0000   0.2746
  14.000   2.1621   0.12419   0.11955  -0.1350  0.0396  0.7130  -6.3585   0.0000   0.2742
  14.200   2.1558   0.12690   0.12231  -0.1353  0.0386  0.7140  -6.3959   0.0000   0.2738
  14.400   2.1492   0.12967   0.12515  -0.1358  0.0376  0.7150  -6.4306   0.0000   0.2736
  14.600   2.1447   0.13217   0.12770  -0.1363  0.0369  0.7160  -6.4736   0.0000   0.2732
  14.800   2.1390   0.13487   0.13047  -0.1370  0.0362  0.7170  -6.5103   0.0000   0.2730
  15.000   2.1324   0.13772   0.13338  -0.1380  0.0354  0.7179  -6.5428   0.0000   0.2730
  15.200   2.1251   0.14070   0.13642  -0.1391  0.0347  0.7187  -6.5709   0.0000   0.2730
  15.400   2.1172   0.14376   0.13955  -0.1405  0.0340  0.7196  -6.5958   0.0000   0.2731
  15.600   2.1111   0.14661   0.14245  -0.1418  0.0334  0.7206  -6.6291   0.0000   0.2732
  15.800   2.1052   0.14946   0.14537  -0.1432  0.0328  0.7217  -6.6660   0.0000   0.2733
  16.000   2.0979   0.15255   0.14852  -0.1449  0.0321  0.7227  -6.6954   0.0000   0.2736
  16.200   2.0901   0.15575   0.15179  -0.1469  0.0314  0.7237  -6.7207   0.0000   0.2740
  16.400   2.0817   0.15905   0.15515  -0.1490  0.0307  0.7247  -6.7422   0.0000   0.2745
  16.600   2.0736   0.16231   0.15847  -0.1511  0.0300  0.7256  -6.7640   0.0000   0.2751
  16.800   2.0666   0.16544   0.16166  -0.1533  0.0295  0.7264  -6.7898   0.0000   0.2756
  17.000   2.0592   0.16864   0.16493  -0.1556  0.0289  0.7272  -6.8121   0.0000   0.2761
  17.200   2.0531   0.17162   0.16796  -0.1578  0.0283  0.7279  -6.8407   0.0000   0.2766
  17.400   2.0445   0.17498   0.17137  -0.1604  0.0277  0.7284  -6.8549   0.0000   0.2774
  17.600   2.0348   0.17834   0.17479  -0.1631  0.0271  0.7291  -6.8623   0.0000   0.2782
  17.800   2.0278   0.18116   0.17767  -0.1652  0.0266  0.7299  -6.8839   0.0000   0.2788
  18.000   2.0196   0.18421   0.18078  -0.1677  0.0262  0.7307  -6.8972   0.0000   0.2795
  18.200   2.0145   0.18674   0.18336  -0.1696  0.0257  0.7315  -6.9275   0.0000   0.2799
  18.400   2.0058   0.18987   0.18655  -0.1723  0.0252  0.7322  -6.9358   0.0000   0.2807
  18.600   2.0004   0.19243   0.18916  -0.1745  0.0247  0.7330  -6.9628   0.0000   0.2812
  18.800   1.9913   0.19564   0.19243  -0.1773  0.0242  0.7337  -6.9659   0.0000   0.2822
  19.000   1.9855   0.19828   0.19510  -0.1797  0.0237  0.7346  -6.9884   0.0000   0.2828
  19.200   1.9783   0.20119   0.19808  -0.1824  0.0233  0.7355  -7.0005   0.0000   0.2836
  19.400   1.9746   0.20352   0.20045  -0.1844  0.0229  0.7365  -7.0336   0.0000   0.2840
  19.600   1.9698   0.20606   0.20304  -0.1868  0.0225  0.7374  -7.0588   0.0000   0.2846
  19.800   1.9641   0.20880   0.20582  -0.1895  0.0220  0.7383  -7.0765   0.0000   0.2854
  20.000   1.9607   0.21114   0.20820  -0.1918  0.0215  0.7393  -7.1089   0.0000   0.2858
  20.200   1.9535   0.21417   0.21128  -0.1949  0.0211  0.7401  -7.1146   0.0000   0.2869
  20.400   1.9500   0.21656   0.21371  -0.1973  0.0207  0.7409  -7.1439   0.0000   0.2874
  20.600   1.9481   0.21869   0.21587  -0.1994  0.0203  0.7418  -7.1831   0.0000   0.2878
  20.800   1.9426   0.22144   0.21867  -0.2024  0.0199  0.7426  -7.1965   0.0000   0.2887
  21.000   1.9402   0.22363   0.22090  -0.2047  0.0194  0.7434  -7.2311   0.0000   0.2891
  21.200   1.9373   0.22592   0.22321  -0.2071  0.0190  0.7442  -7.2612   0.0000   0.2896
  21.400   1.9311   0.22877   0.22611  -0.2103  0.0185  0.7449  -7.2671   0.0000   0.2907
  21.600   1.9283   0.23104   0.22840  -0.2128  0.0181  0.7456  -7.2961   0.0000   0.2913
  21.800   1.9268   0.23305   0.23045  -0.2151  0.0178  0.7463  -7.3344   0.0000   0.2916
  22.000   1.9214   0.23553   0.23298  -0.2178  0.0174  0.7472  -7.3447   0.0000   0.2924
  22.200   1.9189   0.23746   0.23494  -0.2200  0.0171  0.7481  -7.3766   0.0000   0.2928
  22.400   1.9164   0.23936   0.23687  -0.2221  0.0167  0.7489  -7.4084   0.0000   0.2931
  22.600   1.9102   0.24196   0.23952  -0.2251  0.0164  0.7496  -7.4095   0.0000   0.2942
  22.800   1.9072   0.24397   0.24156  -0.2275  0.0161  0.7503  -7.4395   0.0000   0.2946
  23.000   1.9044   0.24593   0.24355  -0.2298  0.0157  0.7509  -7.4713   0.0000   0.2951
  23.200   1.8999   0.24823   0.24589  -0.2325  0.0155  0.7516  -7.4870   0.0000   0.2959
  23.400   1.8979   0.25005   0.24775  -0.2347  0.0153  0.7523  -7.5232   0.0000   0.2962
  23.600   1.8964   0.25175   0.24948  -0.2368  0.0150  0.7530  -7.5642   0.0000   0.2965
  23.800   1.8935   0.25374   0.25151  -0.2393  0.0147  0.7537  -7.5915   0.0000   0.2970
  24.000   1.8889   0.25606   0.25386  -0.2422  0.0144  0.7544  -7.6028   0.0000   0.2978
  24.200   1.8868   0.25792   0.25574  -0.2445  0.0141  0.7551  -7.6352   0.0000   0.2983
  24.400   1.8841   0.25987   0.25773  -0.2471  0.0137  0.7559  -7.6620   0.0000   0.2988
  24.600   1.8792   0.26228   0.26018  -0.2502  0.0135  0.7568  -7.6660   0.0000   0.2998
  24.800   1.8784   0.26388   0.26180  -0.2523  0.0132  0.7577  -7.7086   0.0000   0.3000
  25.000   1.8775   0.26548   0.26344  -0.2544  0.0130  0.7587  -7.7500   0.0000   0.3002


