xflr5 v6.47

 Calculated polar for: NACA24018_theta30_Ku4.5_Kl0.5_d0.00_delta0.00

 1 1 Reynolds number fixed          Mach number fixed         

 xtrf =   1.000 (top)        1.000 (bottom)
 Mach =   0.000     Re =     0.400 e 6     Ncrit =   5.000

  alpha     CL        CD       CDp       Cm    Top Xtr Bot Xtr   Cpmin    Chinge    XCp    
 ------- -------- --------- --------- -------- ------- ------- -------- --------- ---------
 -15.000  -1.0270   0.03798   0.03179  -0.0724  1.0000  0.0318  -6.5475   0.0000   0.1551
 -14.800  -1.0230   0.03671   0.03046  -0.0717  1.0000  0.0320  -6.4735   0.0000   0.1559
 -14.600  -1.0187   0.03550   0.02919  -0.0708  1.0000  0.0324  -6.3981   0.0000   0.1568
 -14.400  -1.0141   0.03436   0.02799  -0.0699  1.0000  0.0327  -6.3213   0.0000   0.1578
 -14.200  -1.0092   0.03329   0.02686  -0.0689  1.0000  0.0330  -6.2431   0.0000   0.1589
 -14.000  -1.0039   0.03228   0.02579  -0.0678  1.0000  0.0333  -6.1633   0.0000   0.1600
 -13.800  -0.9994   0.03128   0.02475  -0.0665  1.0000  0.0336  -6.0850   0.0000   0.1614
 -13.600  -0.9952   0.03032   0.02376  -0.0651  1.0000  0.0339  -6.0062   0.0000   0.1629
 -13.400  -0.9904   0.02945   0.02288  -0.0636  1.0000  0.0342  -5.9240   0.0000   0.1644
 -13.200  -0.9851   0.02866   0.02207  -0.0621  1.0000  0.0345  -5.8397   0.0000   0.1660
 -13.000  -0.9795   0.02793   0.02131  -0.0604  1.0000  0.0349  -5.7549   0.0000   0.1677
 -12.800  -0.9740   0.02724   0.02059  -0.0587  1.0000  0.0353  -5.6716   0.0000   0.1696
 -12.600  -0.9687   0.02659   0.01991  -0.0568  1.0000  0.0357  -5.5918   0.0000   0.1715
 -12.400  -0.9636   0.02598   0.01926  -0.0547  1.0000  0.0362  -5.5133   0.0000   0.1737
 -12.200  -0.9589   0.02540   0.01864  -0.0525  1.0000  0.0366  -5.4366   0.0000   0.1761
 -12.000  -0.9547   0.02486   0.01806  -0.0501  1.0000  0.0370  -5.3617   0.0000   0.1787
 -11.800  -0.9511   0.02436   0.01752  -0.0476  1.0000  0.0373  -5.2886   0.0000   0.1815
 -11.600  -0.9496   0.02385   0.01699  -0.0446  1.0000  0.0377  -5.2216   0.0000   0.1849
 -11.400  -0.9492   0.02339   0.01653  -0.0414  1.0000  0.0380  -5.1572   0.0000   0.1886
 -11.200  -0.9272   0.02278   0.01591  -0.0423  0.9980  0.0386  -5.0261   0.0000   0.1869
 -11.000  -0.9047   0.02224   0.01535  -0.0431  0.9953  0.0393  -4.8948   0.0000   0.1850
 -10.800  -0.8832   0.02171   0.01480  -0.0437  0.9923  0.0400  -4.7679   0.0000   0.1834
 -10.600  -0.8608   0.02122   0.01427  -0.0444  0.9895  0.0409  -4.6402   0.0000   0.1814
 -10.400  -0.8375   0.02075   0.01375  -0.0451  0.9868  0.0417  -4.5118   0.0000   0.1792
 -10.200  -0.8178   0.02021   0.01323  -0.0453  0.9825  0.0424  -4.3936   0.0000   0.1779
 -10.000  -0.7948   0.01973   0.01275  -0.0460  0.9795  0.0433  -4.2707   0.0000   0.1755
  -9.800  -0.7745   0.01930   0.01230  -0.0461  0.9747  0.0441  -4.1572   0.0000   0.1740
  -9.600  -0.7516   0.01886   0.01185  -0.0466  0.9711  0.0451  -4.0384   0.0000   0.1716
  -9.400  -0.7295   0.01845   0.01141  -0.0469  0.9669  0.0461  -3.9235   0.0000   0.1694
  -9.200  -0.7083   0.01802   0.01097  -0.0471  0.9619  0.0471  -3.8113   0.0000   0.1674
  -9.000  -0.6830   0.01758   0.01054  -0.0481  0.9586  0.0482  -3.6883   0.0000   0.1635
  -8.800  -0.6620   0.01722   0.01017  -0.0481  0.9519  0.0494  -3.5780   0.0000   0.1613
  -8.600  -0.6335   0.01682   0.00974  -0.0496  0.9481  0.0508  -3.4510   0.0000   0.1556
  -8.400  -0.6102   0.01646   0.00936  -0.0500  0.9412  0.0521  -3.3407   0.0000   0.1519
  -8.200  -0.5827   0.01602   0.00895  -0.0514  0.9359  0.0535  -3.2228   0.0000   0.1456
  -8.000  -0.5585   0.01568   0.00860  -0.0520  0.9278  0.0551  -3.1143   0.0000   0.1407
  -7.800  -0.5307   0.01534   0.00822  -0.0533  0.9200  0.0569  -2.9994   0.0000   0.1333
  -7.600  -0.5040   0.01496   0.00783  -0.0543  0.9098  0.0586  -2.8885   0.0000   0.1257
  -7.400  -0.4794   0.01463   0.00749  -0.0549  0.8968  0.0604  -2.7828   0.0000   0.1188
  -7.200  -0.4553   0.01436   0.00716  -0.0554  0.8819  0.0625  -2.6798   0.0000   0.1117
  -7.000  -0.4348   0.01412   0.00686  -0.0550  0.8654  0.0644  -2.5859   0.0000   0.1066
  -6.800  -0.4171   0.01389   0.00660  -0.0541  0.8486  0.0664  -2.4996   0.0000   0.1034
  -6.600  -0.4002   0.01372   0.00636  -0.0530  0.8322  0.0686  -2.4189   0.0000   0.1007
  -6.400  -0.3840   0.01358   0.00615  -0.0517  0.8165  0.0707  -2.3407   0.0000   0.0985
  -6.200  -0.3695   0.01343   0.00595  -0.0501  0.8004  0.0729  -2.2662   0.0000   0.0977
  -6.000  -0.3547   0.01330   0.00577  -0.0485  0.7848  0.0755  -2.1917   0.0000   0.0965
  -5.800  -0.3392   0.01320   0.00560  -0.0470  0.7691  0.0782  -2.1169   0.0000   0.0946
  -5.600  -0.3243   0.01306   0.00542  -0.0455  0.7535  0.0811  -2.0437   0.0000   0.0930
  -5.400  -0.3090   0.01296   0.00526  -0.0440  0.7381  0.0844  -1.9727   0.0000   0.0908
  -5.200  -0.2934   0.01286   0.00510  -0.0425  0.7229  0.0878  -1.9032   0.0000   0.0881
  -5.000  -0.2783   0.01275   0.00495  -0.0410  0.7078  0.0919  -1.8351   0.0000   0.0856
  -4.800  -0.2624   0.01267   0.00481  -0.0396  0.6929  0.0961  -1.7664   0.0000   0.0818
  -4.600  -0.2472   0.01256   0.00467  -0.0381  0.6783  0.1010  -1.7006   0.0000   0.0784
  -4.200  -0.2158   0.01238   0.00441  -0.0353  0.6492  0.1129  -1.5735   0.0000   0.0687
  -4.000  -0.1998   0.01229   0.00429  -0.0340  0.6354  0.1200  -1.5106   0.0000   0.0621
  -3.800  -0.1837   0.01219   0.00417  -0.0326  0.6222  0.1288  -1.4481   0.0000   0.0542
  -3.600  -0.1681   0.01208   0.00406  -0.0312  0.6087  0.1394  -1.3871   0.0000   0.0456
  -3.400  -0.1527   0.01197   0.00394  -0.0298  0.5951  0.1526  -1.3296   0.0000   0.0357
  -3.200  -0.1377   0.01183   0.00382  -0.0283  0.5815  0.1701  -1.2738   0.0000   0.0249
  -3.000  -0.1236   0.01165   0.00369  -0.0266  0.5678  0.1956  -1.2199   0.0000   0.0142
  -2.800  -0.1116   0.01135   0.00353  -0.0246  0.5551  0.2394  -1.1699   0.0000   0.0086
  -2.600  -0.1026   0.01094   0.00337  -0.0221  0.5431  0.3121  -1.1246   0.0000   0.0138
  -2.400  -0.0915   0.01065   0.00327  -0.0199  0.5309  0.3719  -1.0779   0.0000   0.0115
  -2.200  -0.0781   0.01048   0.00320  -0.0181  0.5191  0.4123  -1.0292   0.0000  -0.0035
  -2.000  -0.0637   0.01036   0.00316  -0.0164  0.5082  0.4445  -0.9796   0.0000  -0.0313
  -1.800  -0.0490   0.01026   0.00312  -0.0147  0.4972  0.4735  -0.9302   0.0000  -0.0776
  -1.600  -0.0343   0.01019   0.00309  -0.0131  0.4859  0.5011  -0.8836   0.0000  -0.1647
  -1.400  -0.0186   0.01013   0.00307  -0.0116  0.4746  0.5255  -0.8363   0.0000  -0.4242
  -1.200  -0.0029   0.01009   0.00305  -0.0102  0.4637  0.5467  -0.7901   0.0000  -3.4778
  -1.000   0.0131   0.01007   0.00305  -0.0088  0.4533  0.5672  -0.7771   0.0000   0.9533
  -0.800   0.0293   0.01004   0.00304  -0.0074  0.4432  0.5869  -0.7969   0.0000   0.5107
  -0.600   0.0458   0.01002   0.00305  -0.0060  0.4337  0.6056  -0.8176   0.0000   0.3832
  -0.400   0.0622   0.01002   0.00306  -0.0047  0.4244  0.6240  -0.8387   0.0000   0.3230
  -0.200   0.0788   0.01002   0.00307  -0.0034  0.4150  0.6428  -0.8601   0.0000   0.2884
   0.000   0.0954   0.01001   0.00309  -0.0021  0.4066  0.6615  -0.8815   0.0000   0.2655
   0.200   0.1116   0.01001   0.00312  -0.0007  0.3986  0.6816  -0.9027   0.0000   0.2488
   0.400   0.1285   0.01000   0.00315   0.0006  0.3911  0.7023  -0.9244   0.0000   0.2372
   1.200   0.2005   0.01014   0.00331   0.0047  0.3632  0.7544  -1.0194   0.0000   0.2170
   1.400   0.2190   0.01020   0.00336   0.0056  0.3572  0.7652  -1.0437   0.0000   0.2146
   1.600   0.2375   0.01026   0.00341   0.0065  0.3518  0.7764  -1.0682   0.0000   0.2126
   1.800   0.2566   0.01031   0.00347   0.0073  0.3460  0.7873  -1.0934   0.0000   0.2114
   2.000   0.2752   0.01039   0.00354   0.0081  0.3407  0.7982  -1.1193   0.0000   0.2100
   2.200   0.2948   0.01044   0.00361   0.0088  0.3358  0.8093  -1.1461   0.0000   0.2095
   2.400   0.3139   0.01051   0.00368   0.0096  0.3311  0.8206  -1.1727   0.0000   0.2087
   2.600   0.3336   0.01061   0.00377   0.0102  0.3267  0.8308  -1.2003   0.0000   0.2085
   2.800   0.3542   0.01068   0.00386   0.0106  0.3223  0.8411  -1.2296   0.0000   0.2089
   3.000   0.3741   0.01077   0.00395   0.0112  0.3178  0.8515  -1.2585   0.0000   0.2089
   3.200   0.3950   0.01089   0.00406   0.0115  0.3135  0.8614  -1.2883   0.0000   0.2095
   3.400   0.4172   0.01100   0.00418   0.0116  0.3098  0.8706  -1.3192   0.0000   0.2107
   3.600   0.4383   0.01110   0.00428   0.0119  0.3060  0.8802  -1.3495   0.0000   0.2112
   3.800   0.4621   0.01125   0.00442   0.0116  0.3020  0.8885  -1.3836   0.0000   0.2132
   4.000   0.4845   0.01141   0.00456   0.0116  0.2983  0.8968  -1.4167   0.0000   0.2143
   4.200   0.5090   0.01154   0.00470   0.0111  0.2946  0.9046  -1.4517   0.0000   0.2162
   4.400   0.5345   0.01169   0.00485   0.0105  0.2908  0.9112  -1.4877   0.0000   0.2184
   4.600   0.5584   0.01186   0.00500   0.0101  0.2872  0.9181  -1.5226   0.0000   0.2198
   4.800   0.5836   0.01205   0.00517   0.0094  0.2838  0.9237  -1.5602   0.0000   0.2216
   5.000   0.6108   0.01221   0.00533   0.0084  0.2802  0.9286  -1.6001   0.0000   0.2239
   5.200   0.6336   0.01237   0.00549   0.0082  0.2768  0.9349  -1.6362   0.0000   0.2245
   5.400   0.6619   0.01260   0.00568   0.0068  0.2734  0.9382  -1.6776   0.0000   0.2270
   5.600   0.6857   0.01280   0.00587   0.0064  0.2704  0.9435  -1.7150   0.0000   0.2278
   5.800   0.7111   0.01297   0.00604   0.0057  0.2671  0.9477  -1.7556   0.0000   0.2290
   6.000   0.7394   0.01317   0.00624   0.0043  0.2635  0.9503  -1.8000   0.0000   0.2310
   6.200   0.7635   0.01338   0.00644   0.0038  0.2605  0.9544  -1.8421   0.0000   0.2317
   6.400   0.7850   0.01361   0.00663   0.0038  0.2577  0.9590  -1.8817   0.0000   0.2316
   6.600   0.8125   0.01380   0.00684   0.0026  0.2546  0.9612  -1.9276   0.0000   0.2331
   6.800   0.8371   0.01400   0.00704   0.0019  0.2513  0.9644  -1.9709   0.0000   0.2337
   7.200   0.8834   0.01444   0.00746   0.0012  0.2454  0.9712  -2.0566   0.0000   0.2343
   7.400   0.9083   0.01465   0.00767   0.0004  0.2426  0.9740  -2.1029   0.0000   0.2350
   7.600   0.9291   0.01483   0.00787   0.0005  0.2396  0.9784  -2.1458   0.0000   0.2346
   7.800   0.9552   0.01505   0.00809  -0.0006  0.2363  0.9803  -2.1961   0.0000   0.2356
   8.000   0.9794   0.01529   0.00831  -0.0013  0.2332  0.9830  -2.2445   0.0000   0.2360
   8.200   1.0013   0.01552   0.00855  -0.0015  0.2305  0.9865  -2.2906   0.0000   0.2360
   8.400   1.0269   0.01572   0.00877  -0.0025  0.2275  0.9886  -2.3422   0.0000   0.2367
   8.600   1.0519   0.01594   0.00900  -0.0034  0.2246  0.9909  -2.3947   0.0000   0.2373
   8.800   1.0753   0.01620   0.00925  -0.0041  0.2217  0.9935  -2.4455   0.0000   0.2376
   9.000   1.0980   0.01649   0.00953  -0.0047  0.2188  0.9960  -2.4957   0.0000   0.2377
   9.200   1.1233   0.01669   0.00977  -0.0057  0.2160  0.9981  -2.5501   0.0000   0.2383
   9.400   1.1480   0.01694   0.01003  -0.0066  0.2129  0.9998  -2.6088   0.0000   0.2387
   9.600   1.1538   0.01713   0.01024  -0.0038  0.2106  1.0000  -2.6434   0.0000   0.2359
   9.800   1.1574   0.01735   0.01045  -0.0006  0.2085  1.0000  -2.6751   0.0000   0.2328
  10.000   1.1611   0.01761   0.01071   0.0025  0.2065  1.0000  -2.7070   0.0000   0.2298
  10.200   1.1690   0.01782   0.01095   0.0049  0.2045  1.0000  -2.7447   0.0000   0.2275
  10.400   1.1768   0.01806   0.01122   0.0072  0.2022  1.0000  -2.7824   0.0000   0.2252
  10.600   1.1845   0.01833   0.01151   0.0095  0.1998  1.0000  -2.8210   0.0000   0.2230
  10.800   1.1918   0.01865   0.01184   0.0117  0.1975  1.0000  -2.8635   0.0000   0.2208
  11.000   1.1986   0.01902   0.01220   0.0140  0.1953  1.0000  -2.9053   0.0000   0.2186
  11.200   1.2072   0.01937   0.01258   0.0159  0.1931  1.0000  -2.9500   0.0000   0.2167
  11.400   1.2170   0.01970   0.01295   0.0176  0.1906  1.0000  -2.9969   0.0000   0.2151
  11.600   1.2260   0.02009   0.01335   0.0194  0.1880  1.0000  -3.0425   0.0000   0.2134
  11.800   1.2341   0.02053   0.01381   0.0211  0.1854  1.0000  -3.0868   0.0000   0.2117
  12.000   1.2412   0.02106   0.01433   0.0230  0.1830  1.0000  -3.1293   0.0000   0.2099
  12.200   1.2507   0.02151   0.01482   0.0244  0.1807  1.0000  -3.1761   0.0000   0.2085
  12.400   1.2605   0.02198   0.01533   0.0258  0.1782  1.0000  -3.2276   0.0000   0.2072
  12.600   1.2692   0.02252   0.01590   0.0273  0.1757  1.0000  -3.2794   0.0000   0.2058
  12.800   1.2768   0.02314   0.01653   0.0287  0.1732  1.0000  -3.3311   0.0000   0.2044
  13.000   1.2832   0.02386   0.01726   0.0302  0.1709  1.0000  -3.3802   0.0000   0.2030
  13.200   1.2930   0.02444   0.01789   0.0313  0.1683  1.0000  -3.4365   0.0000   0.2019
  13.400   1.3015   0.02512   0.01860   0.0324  0.1654  1.0000  -3.4903   0.0000   0.2008
  13.600   1.3083   0.02592   0.01942   0.0336  0.1625  1.0000  -3.5426   0.0000   0.1997
  13.800   1.3137   0.02684   0.02036   0.0347  0.1601  1.0000  -3.5934   0.0000   0.1984
  14.000   1.3216   0.02765   0.02121   0.0357  0.1578  1.0000  -3.6507   0.0000   0.1975
  14.200   1.3294   0.02849   0.02210   0.0365  0.1554  1.0000  -3.7096   0.0000   0.1966
  14.400   1.3358   0.02947   0.02311   0.0374  0.1529  1.0000  -3.7651   0.0000   0.1956
  14.600   1.3404   0.03060   0.02426   0.0382  0.1505  1.0000  -3.8164   0.0000   0.1946
  14.800   1.3438   0.03186   0.02555   0.0390  0.1482  1.0000  -3.8647   0.0000   0.1936
  15.000   1.3507   0.03291   0.02665   0.0396  0.1456  1.0000  -3.9235   0.0000   0.1929
  15.200   1.3553   0.03416   0.02796   0.0402  0.1427  1.0000  -3.9766   0.0000   0.1921
  15.400   1.3575   0.03565   0.02948   0.0407  0.1401  1.0000  -4.0235   0.0000   0.1913
  15.600   1.3579   0.03736   0.03120   0.0412  0.1377  1.0000  -4.0652   0.0000   0.1904
  15.800   1.3628   0.03872   0.03263   0.0415  0.1352  1.0000  -4.1203   0.0000   0.1898
  16.000   1.3654   0.04033   0.03429   0.0418  0.1326  1.0000  -4.1693   0.0000   0.1892
  16.200   1.3654   0.04222   0.03622   0.0419  0.1301  1.0000  -4.2111   0.0000   0.1886
  16.400   1.3630   0.04440   0.03843   0.0420  0.1278  1.0000  -4.2454   0.0000   0.1879
  16.600   1.3644   0.04625   0.04034   0.0420  0.1256  1.0000  -4.2909   0.0000   0.1875
  16.800   1.3645   0.04827   0.04243   0.0419  0.1231  1.0000  -4.3335   0.0000   0.1870
  17.000   1.3620   0.05062   0.04483   0.0417  0.1207  1.0000  -4.3679   0.0000   0.1866
  17.200   1.3567   0.05333   0.04757   0.0414  0.1185  1.0000  -4.3929   0.0000   0.1861
  17.400   1.3533   0.05586   0.05016   0.0410  0.1163  1.0000  -4.4233   0.0000   0.1858
  17.600   1.3507   0.05835   0.05272   0.0405  0.1140  1.0000  -4.4561   0.0000   0.1855
  17.800   1.3455   0.06121   0.05563   0.0400  0.1116  1.0000  -4.4809   0.0000   0.1853
  18.000   1.3373   0.06444   0.05891   0.0392  0.1095  1.0000  -4.4954   0.0000   0.1851
  18.200   1.3289   0.06775   0.06227   0.0384  0.1075  1.0000  -4.5081   0.0000   0.1849
  18.400   1.3243   0.07066   0.06525   0.0376  0.1054  1.0000  -4.5329   0.0000   0.1848
  18.600   1.3169   0.07393   0.06858   0.0367  0.1031  1.0000  -4.5483   0.0000   0.1848
  18.800   1.3071   0.07756   0.07226   0.0356  0.1010  1.0000  -4.5547   0.0000   0.1848
  19.000   1.2952   0.08149   0.07624   0.0344  0.0991  1.0000  -4.5527   0.0000   0.1849
  19.200   1.2895   0.08467   0.07948   0.0334  0.0972  1.0000  -4.5722   0.0000   0.1850
  19.400   1.2817   0.08815   0.08303   0.0322  0.0951  1.0000  -4.5832   0.0000   0.1852
  19.600   1.2718   0.09195   0.08688   0.0309  0.0930  1.0000  -4.5852   0.0000   0.1855
  19.800   1.2602   0.09601   0.09098   0.0294  0.0911  1.0000  -4.5801   0.0000   0.1858
  20.000   1.2525   0.09959   0.09461   0.0281  0.0892  1.0000  -4.5883   0.0000   0.1862
  20.200   1.2459   0.10302   0.09811   0.0268  0.0872  1.0000  -4.6000   0.0000   0.1866
  20.400   1.2369   0.10682   0.10195   0.0253  0.0852  1.0000  -4.6027   0.0000   0.1870
  20.600   1.2270   0.11079   0.10595   0.0237  0.0833  1.0000  -4.6004   0.0000   0.1876
  20.800   1.2199   0.11437   0.10957   0.0222  0.0815  1.0000  -4.6086   0.0000   0.1882
  21.000   1.2139   0.11783   0.11310   0.0207  0.0796  1.0000  -4.6204   0.0000   0.1888
  21.200   1.2075   0.12135   0.11666   0.0191  0.0776  1.0000  -4.6293   0.0000   0.1894
  21.400   1.1992   0.12518   0.12051   0.0173  0.0757  1.0000  -4.6292   0.0000   0.1902
  21.600   1.1937   0.12861   0.12397   0.0157  0.0741  1.0000  -4.6399   0.0000   0.1910
  21.800   1.1892   0.13194   0.12736   0.0140  0.0722  1.0000  -4.6534   0.0000   0.1917
  22.000   1.1846   0.13528   0.13073   0.0123  0.0704  1.0000  -4.6660   0.0000   0.1925
  22.200   1.1783   0.13890   0.13437   0.0104  0.0687  1.0000  -4.6698   0.0000   0.1935
  22.400   1.1746   0.14211   0.13761   0.0087  0.0671  1.0000  -4.6844   0.0000   0.1944
  22.600   1.1711   0.14533   0.14088   0.0069  0.0654  1.0000  -4.6985   0.0000   0.1953
  22.800   1.1676   0.14855   0.14414   0.0051  0.0637  1.0000  -4.7120   0.0000   0.1963
  23.000   1.1639   0.15182   0.14742   0.0032  0.0621  1.0000  -4.7236   0.0000   0.1973
  23.200   1.1609   0.15498   0.15060   0.0013  0.0607  1.0000  -4.7385   0.0000   0.1983
  23.400   1.1596   0.15789   0.15356  -0.0004  0.0592  1.0000  -4.7615   0.0000   0.1993
  23.600   1.1567   0.16108   0.15678  -0.0024  0.0576  1.0000  -4.7755   0.0000   0.2004
  23.800   1.1542   0.16418   0.15990  -0.0044  0.0561  1.0000  -4.7910   0.0000   0.2015
  24.000   1.1533   0.16700   0.16271  -0.0062  0.0548  1.0000  -4.8145   0.0000   0.2025
  24.200   1.1516   0.17002   0.16580  -0.0082  0.0535  1.0000  -4.8310   0.0000   0.2037
  24.400   1.1502   0.17296   0.16877  -0.0102  0.0521  1.0000  -4.8497   0.0000   0.2048
  24.600   1.1492   0.17584   0.17168  -0.0121  0.0508  1.0000  -4.8715   0.0000   0.2059
  24.800   1.1480   0.17876   0.17458  -0.0142  0.0496  1.0000  -4.8917   0.0000   0.2071
  25.000   1.1477   0.18154   0.17742  -0.0161  0.0484  1.0000  -4.9150   0.0000   0.2082


