xflr5 v6.47

 Calculated polar for: NACA24018_theta30_Ku4.5_Kl0.5_d0.28_delta9.02

 1 1 Reynolds number fixed          Mach number fixed         

 xtrf =   1.000 (top)        1.000 (bottom)
 Mach =   0.000     Re =     0.600 e 6     Ncrit =   5.000

  alpha     CL        CD       CDp       Cm    Top Xtr Bot Xtr   Cpmin    Chinge    XCp    
 ------- -------- --------- --------- -------- ------- ------- -------- --------- ---------
 -15.000  -0.6514   0.04916   0.04434  -0.1016  0.8599  0.0423  -5.0841   0.0000   0.0664
 -14.800  -0.6457   0.04803   0.04322  -0.1008  0.8558  0.0427  -5.0108   0.0000   0.0666
 -14.600  -0.6188   0.04766   0.04283  -0.1028  0.8546  0.0434  -4.8673   0.0000   0.0563
 -14.400  -0.5913   0.04740   0.04255  -0.1047  0.8538  0.0442  -4.7223   0.0000   0.0448
 -14.200  -0.5627   0.04721   0.04234  -0.1067  0.8531  0.0451  -4.5757   0.0000   0.0318
 -14.000  -0.5333   0.04710   0.04219  -0.1087  0.8525  0.0459  -4.4282   0.0000   0.0170
 -13.600  -0.4759   0.04648   0.04159  -0.1129  0.8465  0.0478  -4.1526   0.0000  -0.0178
 -13.400  -0.4462   0.04638   0.04148  -0.1148  0.8452  0.0488  -4.0140   0.0000  -0.0390
 -13.200  -0.4158   0.04634   0.04142  -0.1168  0.8443  0.0500  -3.8753   0.0000  -0.0637
 -13.000  -0.3838   0.04633   0.04139  -0.1191  0.8435  0.0511  -3.7341   0.0000  -0.0945
 -12.800  -0.3495   0.04634   0.04142  -0.1217  0.8429  0.0523  -3.5872   0.0000  -0.1348
 -12.600  -0.3150   0.04640   0.04148  -0.1243  0.8424  0.0536  -3.4419   0.0000  -0.1835
 -12.400  -0.2912   0.04619   0.04126  -0.1252  0.8374  0.0548  -3.3281   0.0000  -0.2206
 -12.200  -0.2605   0.04621   0.04126  -0.1271  0.8359  0.0560  -3.1968   0.0000  -0.2817
 -12.000  -0.2263   0.04628   0.04136  -0.1296  0.8349  0.0575  -3.0578   0.0000  -0.3713
 -11.800  -0.1929   0.04636   0.04144  -0.1318  0.8340  0.0593  -2.9224   0.0000  -0.4882
 -11.600  -0.1592   0.04642   0.04149  -0.1340  0.8333  0.0612  -2.7885   0.0000  -0.6558
 -11.400  -0.1222   0.04652   0.04161  -0.1368  0.8327  0.0632  -2.6485   0.0000  -0.9497
 -11.200  -0.0955   0.04659   0.04170  -0.1380  0.8296  0.0650  -2.5361   0.0000  -1.2942
 -11.000  -0.0666   0.04667   0.04177  -0.1395  0.8270  0.0670  -2.4294   0.0000  -1.9789
 -10.800  -0.0308   0.04669   0.04181  -0.1420  0.8253  0.0695  -2.3097   0.0000  -4.6494
 -10.600   0.0080   0.04655   0.04168  -0.1448  0.8239  0.0725  -2.1856   0.0000  19.3669
  -8.200   0.3394   0.05175   0.04726  -0.1598  0.7612  0.1259  -1.1201   0.0000   0.7331
  -8.000   0.3772   0.05201   0.04756  -0.1623  0.7526  0.1369  -1.0294   0.0000   0.6905
  -7.800   0.4203   0.05207   0.04766  -0.1657  0.7459  0.1517  -0.9371   0.0000   0.6524
  -7.600   0.4725   0.05194   0.04759  -0.1703  0.7392  0.1739  -0.8342   0.0000   0.6171
  -7.400   0.5479   0.05135   0.04707  -0.1787  0.7276  0.2180  -0.8685   0.0000   0.5810
  -7.200   0.7428   0.05032   0.04612  -0.2067  0.6831  0.3828  -1.0230   0.0000   0.5313
  -7.000   0.7854   0.05060   0.04606  -0.2100  0.6228  0.4099  -1.0647   0.0000   0.5197
  -6.800   0.8087   0.05172   0.04699  -0.2103  0.5834  0.4254  -1.0915   0.0000   0.5119
  -6.600   0.8310   0.05264   0.04776  -0.2105  0.5532  0.4367  -1.1179   0.0000   0.5045
  -6.400   0.8542   0.05353   0.04851  -0.2107  0.5253  0.4479  -1.1463   0.0000   0.4975
  -6.200   0.8777   0.05434   0.04920  -0.2110  0.5010  0.4582  -1.1752   0.0000   0.4907
  -6.000   0.9020   0.05509   0.04983  -0.2115  0.4801  0.4675  -1.2048   0.0000   0.4843
  -5.800   0.9242   0.05568   0.05035  -0.2115  0.4628  0.4750  -1.2333   0.0000   0.4782
  -5.400   0.9730   0.05701   0.05153  -0.2123  0.4308  0.4945  -1.2966   0.0000   0.4667
  -5.200   1.0026   0.05792   0.05236  -0.2135  0.4153  0.5073  -1.3328   0.0000   0.4611
  -5.000   1.0216   0.05829   0.05268  -0.2130  0.4032  0.5133  -1.3605   0.0000   0.4563
  -4.800   1.0429   0.05876   0.05308  -0.2128  0.3914  0.5176  -1.3909   0.0000   0.4515
  -4.600   1.0664   0.05931   0.05356  -0.2130  0.3816  0.5217  -1.4240   0.0000   0.4468
  -4.200   1.1056   0.06003   0.05420  -0.2121  0.3639  0.5282  -1.4838   0.0000   0.4382
  -4.000   1.1241   0.06035   0.05447  -0.2114  0.3556  0.5316  -1.5129   0.0000   0.4342
  -3.800   1.1444   0.06074   0.05483  -0.2111  0.3490  0.5351  -1.5437   0.0000   0.4302
  -3.600   1.1661   0.06121   0.05527  -0.2110  0.3423  0.5385  -1.5761   0.0000   0.4263
  -3.200   1.2079   0.06211   0.05609  -0.2105  0.3300  0.5450  -1.6418   0.0000   0.4190
  -3.000   1.2243   0.06232   0.05629  -0.2095  0.3243  0.5479  -1.6711   0.0000   0.4155
  -2.800   1.2420   0.06263   0.05657  -0.2087  0.3190  0.5509  -1.7027   0.0000   0.4122
  -2.600   1.2616   0.06301   0.05694  -0.2082  0.3148  0.5540  -1.7367   0.0000   0.4089
  -2.400   1.2829   0.06349   0.05741  -0.2081  0.3103  0.5573  -1.7728   0.0000   0.4057
  -2.200   1.3066   0.06414   0.05802  -0.2083  0.3052  0.5608  -1.8114   0.0000   0.4026
  -1.800   1.3384   0.06459   0.05845  -0.2061  0.2972  0.5660  -1.8754   0.0000   0.3966
  -1.600   1.3548   0.06483   0.05870  -0.2051  0.2934  0.5688  -1.9086   0.0000   0.3937
  -1.400   1.3725   0.06518   0.05904  -0.2044  0.2892  0.5716  -1.9433   0.0000   0.3909
  -1.200   1.3916   0.06565   0.05948  -0.2038  0.2849  0.5746  -1.9797   0.0000   0.3881
  -1.000   1.4137   0.06625   0.06007  -0.2038  0.2812  0.5779  -2.0195   0.0000   0.3855
  -0.800   1.4359   0.06685   0.06067  -0.2037  0.2778  0.5810  -2.0596   0.0000   0.3829
  -0.600   1.4485   0.06694   0.06077  -0.2022  0.2746  0.5831  -2.0894   0.0000   0.3803
  -0.400   1.4620   0.06712   0.06095  -0.2007  0.2712  0.5853  -2.1205   0.0000   0.3777
  -0.200   1.4764   0.06741   0.06123  -0.1994  0.2676  0.5878  -2.1555   0.0000   0.3752
   0.000   1.4927   0.06777   0.06161  -0.1985  0.2647  0.5904  -2.1930   0.0000   0.3728
   0.200   1.5117   0.06828   0.06212  -0.1979  0.2616  0.5933  -2.2339   0.0000   0.3704
   0.400   1.5331   0.06897   0.06281  -0.1978  0.2583  0.5965  -2.2780   0.0000   0.3682
   0.600   1.5548   0.06973   0.06356  -0.1977  0.2546  0.5997  -2.3227   0.0000   0.3660
   0.800   1.5650   0.06988   0.06371  -0.1958  0.2516  0.6014  -2.3534   0.0000   0.3636
   1.000   1.5764   0.07005   0.06389  -0.1941  0.2490  0.6032  -2.3856   0.0000   0.3613
   1.200   1.5891   0.07025   0.06413  -0.1926  0.2462  0.6050  -2.4205   0.0000   0.3591
   1.400   1.6029   0.07056   0.06446  -0.1912  0.2431  0.6070  -2.4586   0.0000   0.3569
   1.600   1.6180   0.07100   0.06490  -0.1901  0.2397  0.6093  -2.4994   0.0000   0.3548
   1.800   1.6349   0.07160   0.06549  -0.1893  0.2365  0.6120  -2.5428   0.0000   0.3527
   2.000   1.6558   0.07242   0.06630  -0.1892  0.2336  0.6154  -2.5920   0.0000   0.3508
   2.200   1.6771   0.07319   0.06709  -0.1891  0.2308  0.6185  -2.6419   0.0000   0.3490
   2.400   1.6868   0.07331   0.06725  -0.1871  0.2281  0.6198  -2.6773   0.0000   0.3468
   2.600   1.6967   0.07352   0.06747  -0.1853  0.2251  0.6210  -2.7134   0.0000   0.3448
   2.800   1.7067   0.07380   0.06776  -0.1834  0.2221  0.6223  -2.7499   0.0000   0.3427
   3.000   1.7167   0.07416   0.06812  -0.1816  0.2193  0.6238  -2.7872   0.0000   0.3407
   3.200   1.7288   0.07452   0.06852  -0.1801  0.2170  0.6255  -2.8291   0.0000   0.3387
   3.400   1.7416   0.07501   0.06904  -0.1788  0.2143  0.6276  -2.8737   0.0000   0.3368
   3.600   1.7556   0.07564   0.06969  -0.1776  0.2114  0.6299  -2.9204   0.0000   0.3350
   3.800   1.7719   0.07649   0.07054  -0.1769  0.2082  0.6326  -2.9710   0.0000   0.3333
   4.000   1.7957   0.07789   0.07192  -0.1773  0.2045  0.6363  -3.0361   0.0000   0.3318
   4.200   1.8067   0.07827   0.07235  -0.1757  0.2022  0.6375  -3.0822   0.0000   0.3300
   4.400   1.8148   0.07854   0.07265  -0.1737  0.1996  0.6384  -3.1237   0.0000   0.3281
   4.600   1.8225   0.07887   0.07301  -0.1717  0.1968  0.6394  -3.1665   0.0000   0.3262
   4.800   1.8300   0.07929   0.07344  -0.1697  0.1940  0.6404  -3.2091   0.0000   0.3243
   5.000   1.8373   0.07986   0.07402  -0.1677  0.1913  0.6414  -3.2530   0.0000   0.3225
   5.200   1.8461   0.08039   0.07460  -0.1659  0.1890  0.6426  -3.3017   0.0000   0.3207
   5.400   1.8554   0.08094   0.07519  -0.1642  0.1864  0.6438  -3.3516   0.0000   0.3190
   5.600   1.8649   0.08158   0.07586  -0.1626  0.1834  0.6451  -3.4023   0.0000   0.3173
   5.800   1.8742   0.08233   0.07662  -0.1610  0.1803  0.6465  -3.4557   0.0000   0.3156
   6.000   1.8838   0.08323   0.07753  -0.1596  0.1772  0.6483  -3.5154   0.0000   0.3140
   6.200   1.8993   0.08419   0.07853  -0.1589  0.1744  0.6512  -3.5878   0.0000   0.3125
   6.400   1.9228   0.08590   0.08025  -0.1596  0.1704  0.6557  -3.6795   0.0000   0.3114
   6.600   1.9270   0.08661   0.08099  -0.1575  0.1676  0.6563  -3.7283   0.0000   0.3096
   6.800   1.9311   0.08741   0.08180  -0.1554  0.1647  0.6569  -3.7787   0.0000   0.3080
   7.000   1.9374   0.08805   0.08249  -0.1535  0.1623  0.6575  -3.8342   0.0000   0.3063
   7.200   1.9436   0.08875   0.08323  -0.1517  0.1597  0.6581  -3.8898   0.0000   0.3047
   7.400   1.9482   0.08963   0.08415  -0.1498  0.1568  0.6588  -3.9428   0.0000   0.3031
   7.600   1.9518   0.09059   0.08513  -0.1479  0.1538  0.6595  -3.9969   0.0000   0.3015
   7.800   1.9556   0.09154   0.08610  -0.1460  0.1510  0.6602  -4.0517   0.0000   0.3000
   8.000   1.9605   0.09242   0.08704  -0.1442  0.1481  0.6611  -4.1104   0.0000   0.2985
   8.200   1.9645   0.09346   0.08811  -0.1425  0.1450  0.6620  -4.1699   0.0000   0.2970
   8.400   1.9680   0.09463   0.08930  -0.1409  0.1419  0.6629  -4.2285   0.0000   0.2955
   8.600   1.9713   0.09595   0.09065  -0.1393  0.1392  0.6640  -4.2866   0.0000   0.2941
   8.800   1.9775   0.09709   0.09184  -0.1381  0.1367  0.6652  -4.3527   0.0000   0.2928
   9.000   1.9830   0.09846   0.09326  -0.1369  0.1340  0.6667  -4.4173   0.0000   0.2915
   9.200   1.9889   0.10009   0.09492  -0.1360  0.1310  0.6686  -4.4854   0.0000   0.2903
   9.400   2.0084   0.10277   0.09761  -0.1373  0.1272  0.6742  -4.5944   0.0000   0.2896
   9.600   2.0096   0.10396   0.09885  -0.1358  0.1245  0.6747  -4.6514   0.0000   0.2883
   9.800   2.0092   0.10537   0.10031  -0.1343  0.1216  0.6751  -4.7036   0.0000   0.2871
  10.000   2.0073   0.10700   0.10197  -0.1330  0.1189  0.6755  -4.7515   0.0000   0.2859
  10.200   2.0073   0.10843   0.10346  -0.1317  0.1165  0.6760  -4.8066   0.0000   0.2847
  10.400   2.0073   0.10993   0.10501  -0.1306  0.1139  0.6764  -4.8615   0.0000   0.2836
  10.600   2.0063   0.11158   0.10670  -0.1296  0.1111  0.6769  -4.9133   0.0000   0.2826
  10.800   2.0036   0.11346   0.10862  -0.1287  0.1086  0.6773  -4.9597   0.0000   0.2817
  11.000   2.0026   0.11518   0.11040  -0.1280  0.1063  0.6778  -5.0110   0.0000   0.2807
  11.200   2.0018   0.11690   0.11217  -0.1273  0.1037  0.6784  -5.0625   0.0000   0.2798
  11.400   1.9992   0.11886   0.11417  -0.1268  0.1011  0.6789  -5.1102   0.0000   0.2791
  11.800   1.9932   0.12292   0.11834  -0.1262  0.0965  0.6802  -5.2044   0.0000   0.2777
  12.000   1.9910   0.12488   0.12036  -0.1261  0.0941  0.6810  -5.2537   0.0000   0.2771
  12.200   1.9871   0.12711   0.12264  -0.1262  0.0917  0.6818  -5.2961   0.0000   0.2766
  12.400   1.9819   0.12957   0.12516  -0.1266  0.0896  0.6827  -5.3333   0.0000   0.2763
  12.600   1.9802   0.13170   0.12735  -0.1269  0.0875  0.6838  -5.3827   0.0000   0.2758
  12.800   1.9776   0.13406   0.12977  -0.1276  0.0852  0.6850  -5.4283   0.0000   0.2756
  13.000   1.9741   0.13677   0.13253  -0.1287  0.0829  0.6864  -5.4689   0.0000   0.2755
  13.200   1.9752   0.13988   0.13569  -0.1307  0.0805  0.6893  -5.5257   0.0000   0.2757
  13.400   1.9799   0.14317   0.13903  -0.1332  0.0777  0.6926  -5.5950   0.0000   0.2760
  13.600   1.9724   0.14577   0.14169  -0.1343  0.0757  0.6929  -5.6189   0.0000   0.2761
  13.800   1.9639   0.14854   0.14452  -0.1356  0.0740  0.6931  -5.6372   0.0000   0.2763
  14.000   1.9590   0.15082   0.14687  -0.1366  0.0723  0.6935  -5.6694   0.0000   0.2762
  14.200   1.9521   0.15337   0.14948  -0.1379  0.0705  0.6938  -5.6928   0.0000   0.2764
  14.400   1.9439   0.15612   0.15230  -0.1394  0.0688  0.6941  -5.7091   0.0000   0.2767
  14.800   1.9290   0.16142   0.15772  -0.1426  0.0656  0.6948  -5.7454   0.0000   0.2774
  15.000   1.9220   0.16402   0.16039  -0.1443  0.0640  0.6952  -5.7640   0.0000   0.2778
  15.200   1.9139   0.16681   0.16323  -0.1463  0.0624  0.6956  -5.7765   0.0000   0.2783
  15.400   1.9054   0.16969   0.16616  -0.1484  0.0609  0.6961  -5.7858   0.0000   0.2789
  15.600   1.8992   0.17224   0.16877  -0.1502  0.0595  0.6966  -5.8050   0.0000   0.2794
  15.800   1.8934   0.17476   0.17135  -0.1521  0.0580  0.6971  -5.8251   0.0000   0.2798
  16.000   1.8870   0.17742   0.17406  -0.1543  0.0565  0.6976  -5.8408   0.0000   0.2804
  16.200   1.8789   0.18038   0.17707  -0.1568  0.0551  0.6981  -5.8469   0.0000   0.2812
  16.400   1.8743   0.18281   0.17954  -0.1588  0.0538  0.6988  -5.8699   0.0000   0.2817
  16.600   1.8695   0.18535   0.18214  -0.1610  0.0524  0.6994  -5.8900   0.0000   0.2823
  16.800   1.8649   0.18785   0.18469  -0.1632  0.0510  0.7001  -5.9110   0.0000   0.2828
  17.000   1.8583   0.19073   0.18762  -0.1659  0.0497  0.7009  -5.9196   0.0000   0.2837
  17.200   1.8547   0.19319   0.19011  -0.1682  0.0485  0.7018  -5.9430   0.0000   0.2843
  17.400   1.8521   0.19557   0.19255  -0.1705  0.0472  0.7028  -5.9722   0.0000   0.2848
  17.600   1.8491   0.19815   0.19517  -0.1731  0.0459  0.7041  -5.9989   0.0000   0.2855
  17.800   1.8464   0.20102   0.19806  -0.1762  0.0445  0.7059  -6.0253   0.0000   0.2864
  18.000   1.8521   0.20456   0.20165  -0.1807  0.0430  0.7104  -6.0853   0.0000   0.2875
  18.200   1.8485   0.20655   0.20368  -0.1826  0.0419  0.7107  -6.1122   0.0000   0.2879
  18.400   1.8436   0.20879   0.20596  -0.1848  0.0408  0.7110  -6.1301   0.0000   0.2885
  18.600   1.8377   0.21121   0.20842  -0.1872  0.0398  0.7113  -6.1410   0.0000   0.2893
  18.800   1.8350   0.21310   0.21035  -0.1891  0.0388  0.7116  -6.1709   0.0000   0.2896
  19.000   1.8317   0.21512   0.21241  -0.1911  0.0378  0.7120  -6.1962   0.0000   0.2900
  19.200   1.8281   0.21720   0.21453  -0.1933  0.0368  0.7123  -6.2186   0.0000   0.2905
  19.400   1.8246   0.21926   0.21661  -0.1955  0.0359  0.7127  -6.2412   0.0000   0.2910
  19.600   1.8200   0.22154   0.21892  -0.1980  0.0351  0.7130  -6.2546   0.0000   0.2918
  19.800   1.8183   0.22329   0.22072  -0.1998  0.0343  0.7135  -6.2876   0.0000   0.2920
  20.000   1.8166   0.22505   0.22253  -0.2017  0.0334  0.7139  -6.3197   0.0000   0.2923
  20.200   1.8141   0.22696   0.22447  -0.2039  0.0326  0.7144  -6.3459   0.0000   0.2927
  20.400   1.8102   0.22916   0.22669  -0.2064  0.0318  0.7149  -6.3604   0.0000   0.2934
  20.600   1.8078   0.23107   0.22863  -0.2086  0.0312  0.7155  -6.3853   0.0000   0.2938
  20.800   1.8070   0.23268   0.23028  -0.2105  0.0304  0.7161  -6.4263   0.0000   0.2940
  21.000   1.8049   0.23453   0.23217  -0.2126  0.0297  0.7169  -6.4567   0.0000   0.2944
  21.200   1.8027   0.23644   0.23412  -0.2149  0.0290  0.7177  -6.4844   0.0000   0.2949
  21.400   1.8006   0.23834   0.23604  -0.2173  0.0283  0.7186  -6.5133   0.0000   0.2954
  21.600   1.7990   0.24022   0.23794  -0.2196  0.0277  0.7196  -6.5441   0.0000   0.2958
  21.800   1.7983   0.24204   0.23981  -0.2219  0.0270  0.7207  -6.5797   0.0000   0.2962
  22.000   1.7982   0.24388   0.24169  -0.2244  0.0263  0.7220  -6.6183   0.0000   0.2966
  22.200   1.7988   0.24586   0.24370  -0.2271  0.0256  0.7236  -6.6590   0.0000   0.2970
  22.400   1.8048   0.24882   0.24667  -0.2317  0.0248  0.7276  -6.7163   0.0000   0.2980
  22.600   1.8022   0.25058   0.24845  -0.2339  0.0243  0.7279  -6.7394   0.0000   0.2985
  22.800   1.8009   0.25203   0.24995  -0.2358  0.0238  0.7281  -6.7744   0.0000   0.2986
  23.000   1.7996   0.25349   0.25144  -0.2377  0.0232  0.7284  -6.8105   0.0000   0.2988
  23.200   1.7976   0.25507   0.25305  -0.2398  0.0227  0.7288  -6.8404   0.0000   0.2991
  23.400   1.7947   0.25686   0.25487  -0.2422  0.0221  0.7291  -6.8598   0.0000   0.2996
  23.600   1.7923   0.25851   0.25653  -0.2444  0.0217  0.7294  -6.8852   0.0000   0.3000


