xflr5 v6.47

 Calculated polar for: NACA24018_theta30_Ku4.5_Kl0.5_d0.28_delta9.02

 1 1 Reynolds number fixed          Mach number fixed         

 xtrf =   1.000 (top)        1.000 (bottom)
 Mach =   0.000     Re =     2.600 e 6     Ncrit =   5.000

  alpha     CL        CD       CDp       Cm    Top Xtr Bot Xtr   Cpmin    Chinge    XCp    
 ------- -------- --------- --------- -------- ------- ------- -------- --------- ---------
 -15.000  -0.3499   0.03560   0.03186  -0.1580  0.8238  0.0363  -4.2621   0.0000  -0.2483
 -14.800  -0.3233   0.03578   0.03204  -0.1592  0.8238  0.0368  -4.1285   0.0000  -0.2916
 -14.600  -0.2969   0.03597   0.03224  -0.1604  0.8237  0.0372  -3.9965   0.0000  -0.3423
 -14.400  -0.2689   0.03618   0.03246  -0.1619  0.8237  0.0381  -3.8622   0.0000  -0.4079
 -14.200  -0.2409   0.03640   0.03270  -0.1634  0.8237  0.0389  -3.7290   0.0000  -0.4887
 -14.000  -0.2131   0.03664   0.03295  -0.1648  0.8237  0.0398  -3.5978   0.0000  -0.5900
 -13.800  -0.1855   0.03689   0.03322  -0.1662  0.8236  0.0405  -3.4689   0.0000  -0.7201
 -13.600  -0.1577   0.03713   0.03346  -0.1675  0.8236  0.0412  -3.3411   0.0000  -0.8964
 -13.400  -0.1255   0.03718   0.03353  -0.1695  0.8235  0.0423  -3.2034   0.0000  -1.2036
 -13.200  -0.0857   0.03685   0.03321  -0.1726  0.8233  0.0440  -3.0482   0.0000  -1.9086
 -13.000  -0.0376   0.03597   0.03233  -0.1768  0.8230  0.0454  -2.8750   0.0000  -4.7707
 -12.800   0.0121   0.03503   0.03139  -0.1814  0.8227  0.0468  -2.7021   0.0000  16.2189
 -12.600   0.0086   0.03672   0.03311  -0.1779  0.8177  0.0474  -2.6597   0.0000  22.2346
 -12.400   0.0447   0.03656   0.03297  -0.1804  0.8161  0.0489  -2.5232   0.0000   4.5292
 -12.200   0.0788   0.03650   0.03291  -0.1825  0.8154  0.0502  -2.4045   0.0000   2.7020
  -9.800   0.4199   0.03987   0.03584  -0.1975  0.6503  0.0770  -1.2630   0.0000   0.7362
  -9.600   0.4314   0.04102   0.03682  -0.1961  0.6055  0.0794  -1.2082   0.0000   0.7192
  -9.400   0.4500   0.04175   0.03742  -0.1958  0.5734  0.0816  -1.1439   0.0000   0.6983
  -9.200   0.4738   0.04238   0.03797  -0.1963  0.5476  0.0856  -1.0746   0.0000   0.6762
  -9.000   0.4966   0.04293   0.03841  -0.1966  0.5226  0.0891  -1.0082   0.0000   0.6565
  -8.800   0.5220   0.04347   0.03887  -0.1973  0.4992  0.0939  -0.9592   0.0000   0.6375
  -8.600   0.5465   0.04393   0.03927  -0.1979  0.4794  0.0978  -0.9617   0.0000   0.6206
  -8.400   0.5734   0.04446   0.03974  -0.1988  0.4611  0.1045  -0.9665   0.0000   0.6043
  -8.200   0.5997   0.04496   0.04018  -0.1997  0.4426  0.1107  -0.9708   0.0000   0.5896
  -8.000   0.6255   0.04544   0.04060  -0.2004  0.4256  0.1167  -0.9750   0.0000   0.5763
  -7.800   0.6536   0.04599   0.04112  -0.2016  0.4106  0.1260  -0.9812   0.0000   0.5635
  -7.600   0.6822   0.04654   0.04165  -0.2028  0.3990  0.1358  -0.9882   0.0000   0.5516
  -7.400   0.7117   0.04714   0.04222  -0.2041  0.3871  0.1480  -0.9956   0.0000   0.5405
  -7.200   0.7419   0.04777   0.04284  -0.2056  0.3759  0.1625  -1.0245   0.0000   0.5302
  -7.000   0.7727   0.04843   0.04350  -0.2072  0.3655  0.1800  -1.0569   0.0000   0.5206
  -6.600   0.8420   0.05009   0.04519  -0.2116  0.3440  0.2350  -1.1280   0.0000   0.5027
  -6.200   0.9254   0.05243   0.04761  -0.2185  0.3250  0.3201  -1.2145   0.0000   0.4865
  -6.000   0.9677   0.05366   0.04887  -0.2219  0.3162  0.3624  -1.2595   0.0000   0.4793
  -5.800   0.9966   0.05433   0.04955  -0.2231  0.3118  0.3793  -1.2951   0.0000   0.4734
  -5.600   1.0240   0.05494   0.05015  -0.2239  0.3062  0.3938  -1.3297   0.0000   0.4678
  -5.400   1.0531   0.05563   0.05083  -0.2251  0.2996  0.4103  -1.3660   0.0000   0.4625
  -5.200   1.0791   0.05619   0.05139  -0.2257  0.2959  0.4198  -1.4000   0.0000   0.4575
  -5.000   1.1036   0.05669   0.05188  -0.2261  0.2915  0.4291  -1.4343   0.0000   0.4529
  -4.800   1.1305   0.05731   0.05248  -0.2268  0.2866  0.4397  -1.4709   0.0000   0.4483
  -4.600   1.1590   0.05802   0.05319  -0.2278  0.2823  0.4548  -1.5092   0.0000   0.4439
  -4.400   1.1851   0.05863   0.05380  -0.2284  0.2794  0.4678  -1.5457   0.0000   0.4397
  -4.200   1.2107   0.05922   0.05439  -0.2290  0.2752  0.4762  -1.5820   0.0000   0.4358
  -4.000   1.2324   0.05961   0.05475  -0.2288  0.2705  0.4804  -1.6147   0.0000   0.4320
  -3.800   1.2531   0.05996   0.05507  -0.2285  0.2660  0.4838  -1.6467   0.0000   0.4283
  -3.600   1.2731   0.06029   0.05539  -0.2281  0.2637  0.4865  -1.6792   0.0000   0.4248
  -3.400   1.2950   0.06072   0.05581  -0.2280  0.2604  0.4903  -1.7142   0.0000   0.4214
  -3.200   1.3173   0.06117   0.05624  -0.2279  0.2568  0.4946  -1.7509   0.0000   0.4181
  -3.000   1.3384   0.06156   0.05661  -0.2277  0.2528  0.4986  -1.7871   0.0000   0.4148
  -2.800   1.3586   0.06191   0.05695  -0.2273  0.2496  0.5018  -1.8225   0.0000   0.4117
  -2.600   1.3782   0.06223   0.05727  -0.2268  0.2473  0.5042  -1.8576   0.0000   0.4086
  -2.400   1.3981   0.06258   0.05760  -0.2263  0.2443  0.5066  -1.8946   0.0000   0.4057
  -2.200   1.4202   0.06305   0.05805  -0.2262  0.2408  0.5108  -1.9343   0.0000   0.4028
  -2.000   1.4416   0.06349   0.05848  -0.2260  0.2372  0.5149  -1.9735   0.0000   0.4000
  -1.800   1.4619   0.06387   0.05885  -0.2256  0.2342  0.5185  -2.0116   0.0000   0.3972
  -1.600   1.4814   0.06422   0.05919  -0.2251  0.2325  0.5215  -2.0490   0.0000   0.3945
  -1.400   1.5002   0.06453   0.05950  -0.2245  0.2297  0.5236  -2.0860   0.0000   0.3919
  -1.200   1.5200   0.06491   0.05986  -0.2240  0.2257  0.5266  -2.1242   0.0000   0.3893
  -1.000   1.5403   0.06534   0.06026  -0.2236  0.2208  0.5301  -2.1631   0.0000   0.3868
  -0.800   1.5602   0.06574   0.06065  -0.2232  0.2183  0.5337  -2.2029   0.0000   0.3844
  -0.600   1.5796   0.06611   0.06102  -0.2226  0.2163  0.5373  -2.2447   0.0000   0.3820
  -0.400   1.5983   0.06645   0.06136  -0.2220  0.2140  0.5403  -2.2859   0.0000   0.3796
  -0.200   1.6164   0.06677   0.06166  -0.2212  0.2112  0.5425  -2.3265   0.0000   0.3773
   0.000   1.6354   0.06716   0.06204  -0.2206  0.2075  0.5454  -2.3685   0.0000   0.3750
   0.200   1.6550   0.06759   0.06245  -0.2201  0.2041  0.5488  -2.4113   0.0000   0.3728
   0.400   1.6740   0.06798   0.06284  -0.2195  0.2019  0.5519  -2.4538   0.0000   0.3706
   0.600   1.6925   0.06835   0.06321  -0.2188  0.1990  0.5550  -2.4958   0.0000   0.3684
   0.800   1.7104   0.06871   0.06356  -0.2181  0.1958  0.5580  -2.5399   0.0000   0.3663
   1.000   1.7278   0.06906   0.06389  -0.2172  0.1926  0.5605  -2.5845   0.0000   0.3642
   1.200   1.7457   0.06943   0.06426  -0.2165  0.1900  0.5630  -2.6301   0.0000   0.3622
   1.400   1.7650   0.06988   0.06471  -0.2159  0.1880  0.5664  -2.6778   0.0000   0.3602
   1.600   1.7832   0.07030   0.06513  -0.2152  0.1851  0.5694  -2.7244   0.0000   0.3582
   1.800   1.8005   0.07071   0.06552  -0.2144  0.1816  0.5724  -2.7709   0.0000   0.3562
   2.000   1.8172   0.07111   0.06590  -0.2134  0.1773  0.5754  -2.8177   0.0000   0.3543
   2.200   1.8342   0.07148   0.06627  -0.2125  0.1752  0.5780  -2.8651   0.0000   0.3524
   2.400   1.8506   0.07184   0.06663  -0.2115  0.1727  0.5800  -2.9136   0.0000   0.3505
   2.600   1.8673   0.07227   0.06705  -0.2106  0.1695  0.5827  -2.9650   0.0000   0.3486
   2.800   1.8837   0.07275   0.06750  -0.2096  0.1653  0.5856  -3.0163   0.0000   0.3468
   3.000   1.9003   0.07318   0.06794  -0.2087  0.1627  0.5885  -3.0682   0.0000   0.3450
   3.200   1.9162   0.07365   0.06841  -0.2077  0.1599  0.5915  -3.1194   0.0000   0.3432
   3.400   1.9310   0.07416   0.06892  -0.2065  0.1566  0.5942  -3.1731   0.0000   0.3414
   3.600   1.9448   0.07471   0.06944  -0.2052  0.1525  0.5965  -3.2257   0.0000   0.3396
   3.800   1.9592   0.07521   0.06994  -0.2039  0.1500  0.5982  -3.2814   0.0000   0.3378
   4.000   1.9735   0.07571   0.07044  -0.2027  0.1468  0.6000  -3.3372   0.0000   0.3360
   4.200   1.9878   0.07630   0.07101  -0.2015  0.1429  0.6031  -3.3977   0.0000   0.3343
   4.400   2.0022   0.07686   0.07157  -0.2003  0.1392  0.6060  -3.4586   0.0000   0.3326
   4.600   2.0165   0.07740   0.07210  -0.1990  0.1358  0.6086  -3.5197   0.0000   0.3309
   4.800   2.0291   0.07800   0.07268  -0.1976  0.1309  0.6109  -3.5836   0.0000   0.3292
   5.000   2.0425   0.07855   0.07322  -0.1963  0.1274  0.6129  -3.6526   0.0000   0.3276
   5.200   2.0561   0.07908   0.07374  -0.1950  0.1248  0.6148  -3.7224   0.0000   0.3259
   5.400   2.0687   0.07965   0.07431  -0.1936  0.1217  0.6164  -3.7907   0.0000   0.3243
   5.600   2.0807   0.08027   0.07491  -0.1921  0.1183  0.6178  -3.8591   0.0000   0.3226
   5.800   2.0935   0.08087   0.07552  -0.1907  0.1161  0.6204  -3.9311   0.0000   0.3210
   6.000   2.1040   0.08168   0.07633  -0.1891  0.1123  0.6229  -3.9990   0.0000   0.3194
   6.200   2.1131   0.08257   0.07721  -0.1873  0.1079  0.6252  -4.0640   0.0000   0.3177
   6.400   2.1241   0.08327   0.07792  -0.1858  0.1051  0.6273  -4.1372   0.0000   0.3161
   6.600   2.1342   0.08403   0.07867  -0.1842  0.1018  0.6292  -4.2097   0.0000   0.3145
   6.800   2.1439   0.08482   0.07945  -0.1825  0.0982  0.6311  -4.2866   0.0000   0.3129
   7.000   2.1544   0.08555   0.08018  -0.1810  0.0951  0.6330  -4.3659   0.0000   0.3113
   7.200   2.1627   0.08645   0.08106  -0.1792  0.0909  0.6347  -4.4404   0.0000   0.3098
   7.400   2.1707   0.08741   0.08203  -0.1774  0.0880  0.6361  -4.5149   0.0000   0.3082
   7.600   2.1781   0.08842   0.08304  -0.1756  0.0852  0.6375  -4.5879   0.0000   0.3066
   7.800   2.1849   0.08943   0.08405  -0.1738  0.0821  0.6395  -4.6617   0.0000   0.3051
   8.000   2.1937   0.09027   0.08491  -0.1721  0.0799  0.6414  -4.7422   0.0000   0.3035
   8.200   2.2012   0.09122   0.08586  -0.1704  0.0769  0.6431  -4.8214   0.0000   0.3020
   8.400   2.2059   0.09245   0.08709  -0.1685  0.0737  0.6450  -4.8950   0.0000   0.3005
   8.600   2.2117   0.09359   0.08825  -0.1667  0.0712  0.6469  -4.9733   0.0000   0.2990
   8.800   2.2167   0.09480   0.08946  -0.1648  0.0682  0.6487  -5.0492   0.0000   0.2975
   9.000   2.2231   0.09589   0.09055  -0.1632  0.0658  0.6505  -5.1297   0.0000   0.2961
   9.200   2.2272   0.09722   0.09190  -0.1614  0.0634  0.6519  -5.2061   0.0000   0.2946
   9.400   2.2300   0.09867   0.09336  -0.1596  0.0608  0.6531  -5.2815   0.0000   0.2932
   9.600   2.2358   0.09982   0.09452  -0.1580  0.0589  0.6542  -5.3664   0.0000   0.2918
   9.800   2.2386   0.10130   0.09602  -0.1563  0.0567  0.6552  -5.4423   0.0000   0.2904
  10.000   2.2399   0.10282   0.09755  -0.1545  0.0545  0.6567  -5.5138   0.0000   0.2890
  10.200   2.2435   0.10412   0.09889  -0.1529  0.0529  0.6586  -5.5924   0.0000   0.2877
  10.400   2.2447   0.10571   0.10050  -0.1513  0.0510  0.6603  -5.6635   0.0000   0.2863
  10.600   2.2444   0.10744   0.10225  -0.1497  0.0491  0.6617  -5.7300   0.0000   0.2851
  10.800   2.2466   0.10892   0.10377  -0.1483  0.0476  0.6632  -5.8042   0.0000   0.2838
  11.000   2.2461   0.11072   0.10560  -0.1469  0.0458  0.6645  -5.8699   0.0000   0.2826
  11.200   2.2447   0.11262   0.10753  -0.1456  0.0440  0.6657  -5.9322   0.0000   0.2815
  11.400   2.2460   0.11423   0.10917  -0.1445  0.0427  0.6670  -6.0037   0.0000   0.2803
  11.600   2.2452   0.11612   0.11109  -0.1434  0.0413  0.6683  -6.0677   0.0000   0.2793
  11.800   2.2436   0.11810   0.11310  -0.1424  0.0400  0.6695  -6.1287   0.0000   0.2783
  12.000   2.2438   0.11989   0.11493  -0.1416  0.0390  0.6708  -6.1958   0.0000   0.2773
  12.200   2.2430   0.12182   0.11690  -0.1409  0.0380  0.6719  -6.2594   0.0000   0.2763
  12.400   2.2420   0.12378   0.11890  -0.1403  0.0369  0.6729  -6.3217   0.0000   0.2755
  12.600   2.2398   0.12586   0.12102  -0.1399  0.0358  0.6737  -6.3796   0.0000   0.2747
  12.800   2.2366   0.12796   0.12316  -0.1395  0.0350  0.6747  -6.4329   0.0000   0.2739
  13.000   2.2343   0.12991   0.12516  -0.1391  0.0342  0.6760  -6.4895   0.0000   0.2732
  13.200   2.2320   0.13187   0.12718  -0.1389  0.0334  0.6772  -6.5456   0.0000   0.2724
  13.400   2.2277   0.13410   0.12945  -0.1388  0.0325  0.6782  -6.5936   0.0000   0.2719
  13.600   2.2222   0.13648   0.13189  -0.1390  0.0317  0.6793  -6.6361   0.0000   0.2714
  13.800   2.2182   0.13868   0.13414  -0.1392  0.0310  0.6803  -6.6839   0.0000   0.2709
  14.000   2.2153   0.14074   0.13625  -0.1395  0.0304  0.6814  -6.7356   0.0000   0.2704
  14.200   2.2107   0.14305   0.13861  -0.1400  0.0297  0.6826  -6.7796   0.0000   0.2700
  14.400   2.2050   0.14551   0.14113  -0.1407  0.0291  0.6837  -6.8184   0.0000   0.2697
  14.600   2.1987   0.14806   0.14374  -0.1416  0.0284  0.6848  -6.8536   0.0000   0.2696
  14.800   2.1928   0.15057   0.14630  -0.1425  0.0278  0.6860  -6.8898   0.0000   0.2694
  15.000   2.1888   0.15285   0.14863  -0.1435  0.0273  0.6871  -6.9353   0.0000   0.2692
  15.200   2.1830   0.15539   0.15123  -0.1447  0.0268  0.6881  -6.9741   0.0000   0.2692
  15.400   2.1767   0.15799   0.15389  -0.1460  0.0263  0.6890  -7.0099   0.0000   0.2692
  15.600   2.1703   0.16061   0.15657  -0.1475  0.0257  0.6898  -7.0438   0.0000   0.2693
  15.800   2.1632   0.16331   0.15932  -0.1491  0.0252  0.6905  -7.0738   0.0000   0.2694
  16.000   2.1545   0.16626   0.16233  -0.1511  0.0246  0.6911  -7.0947   0.0000   0.2697
  16.200   2.1476   0.16896   0.16509  -0.1529  0.0242  0.6916  -7.1235   0.0000   0.2700
  16.400   2.1418   0.17148   0.16766  -0.1546  0.0238  0.6922  -7.1573   0.0000   0.2702
  16.600   2.1340   0.17414   0.17039  -0.1564  0.0234  0.6932  -7.1799   0.0000   0.2705
  16.800   2.1248   0.17703   0.17333  -0.1586  0.0229  0.6942  -7.1947   0.0000   0.2709
  17.000   2.1168   0.17975   0.17611  -0.1607  0.0224  0.6952  -7.2141   0.0000   0.2713
  17.200   2.1076   0.18264   0.17906  -0.1630  0.0219  0.6962  -7.2263   0.0000   0.2719
  17.400   2.0982   0.18559   0.18207  -0.1655  0.0215  0.6971  -7.2356   0.0000   0.2725
  17.600   2.0933   0.18785   0.18439  -0.1673  0.0212  0.6981  -7.2692   0.0000   0.2727
  17.800   2.0848   0.19068   0.18728  -0.1698  0.0208  0.6990  -7.2815   0.0000   0.2733
  18.000   2.0796   0.19299   0.18963  -0.1717  0.0204  0.6999  -7.3122   0.0000   0.2736
  18.200   2.0704   0.19594   0.19265  -0.1745  0.0200  0.7007  -7.3181   0.0000   0.2744
  18.400   2.0649   0.19833   0.19507  -0.1766  0.0195  0.7016  -7.3446   0.0000   0.2747
  18.600   2.0554   0.20135   0.19815  -0.1795  0.0191  0.7024  -7.3463   0.0000   0.2756
  18.800   2.0508   0.20360   0.20044  -0.1816  0.0188  0.7033  -7.3762   0.0000   0.2760
  19.000   2.0436   0.20628   0.20318  -0.1843  0.0185  0.7041  -7.3926   0.0000   0.2766
  19.200   2.0397   0.20845   0.20538  -0.1864  0.0181  0.7050  -7.4290   0.0000   0.2769
  19.400   2.0354   0.21068   0.20766  -0.1886  0.0178  0.7059  -7.4623   0.0000   0.2773
  19.600   2.0281   0.21340   0.21043  -0.1915  0.0174  0.7068  -7.4750   0.0000   0.2781
  19.800   2.0241   0.21558   0.21264  -0.1937  0.0170  0.7077  -7.5091   0.0000   0.2785
  20.000   2.0160   0.21843   0.21553  -0.1969  0.0166  0.7084  -7.5140   0.0000   0.2794
  20.200   2.0126   0.22053   0.21767  -0.1991  0.0162  0.7092  -7.5495   0.0000   0.2798
  20.400   2.0100   0.22247   0.21965  -0.2012  0.0159  0.7098  -7.5908   0.0000   0.2800
  20.600   2.0028   0.22505   0.22228  -0.2041  0.0156  0.7105  -7.6017   0.0000   0.2808
  20.800   1.9990   0.22699   0.22425  -0.2062  0.0153  0.7114  -7.6365   0.0000   0.2812
  21.000   1.9952   0.22893   0.22622  -0.2083  0.0149  0.7123  -7.6708   0.0000   0.2815
  21.200   1.9872   0.23161   0.22895  -0.2115  0.0146  0.7130  -7.6721   0.0000   0.2825
  21.400   1.9832   0.23358   0.23095  -0.2138  0.0142  0.7138  -7.7030   0.0000   0.2829
  21.600   1.9808   0.23526   0.23266  -0.2157  0.0140  0.7147  -7.7460   0.0000   0.2830
  21.800   1.9744   0.23766   0.23512  -0.2186  0.0138  0.7154  -7.7559   0.0000   0.2838
  22.000   1.9716   0.23939   0.23688  -0.2206  0.0135  0.7162  -7.7949   0.0000   0.2841
  22.200   1.9694   0.24103   0.23855  -0.2226  0.0133  0.7170  -7.8372   0.0000   0.2842
  22.400   1.9633   0.24337   0.24094  -0.2255  0.0130  0.7177  -7.8469   0.0000   0.2850
  22.600   1.9595   0.24529   0.24289  -0.2279  0.0128  0.7185  -7.8750   0.0000   0.2855
  22.800   1.9568   0.24700   0.24463  -0.2301  0.0125  0.7194  -7.9116   0.0000   0.2857
  23.000   1.9518   0.24914   0.24681  -0.2329  0.0122  0.7202  -7.9275   0.0000   0.2864
  23.200   1.9472   0.25120   0.24890  -0.2356  0.0120  0.7211  -7.9463   0.0000   0.2870
  23.400   1.9458   0.25270   0.25044  -0.2375  0.0118  0.7221  -7.9913   0.0000   0.2871
  23.600   1.9440   0.25425   0.25201  -0.2396  0.0116  0.7231  -8.0337   0.0000   0.2873
  23.800   1.9383   0.25652   0.25433  -0.2427  0.0114  0.7239  -8.0391   0.0000   0.2881
  24.000   1.9359   0.25817   0.25601  -0.2449  0.0112  0.7247  -8.0736   0.0000   0.2884
  24.200   1.9338   0.25974   0.25760  -0.2471  0.0110  0.7255  -8.1116   0.0000   0.2886
  24.400   1.9302   0.26158   0.25946  -0.2496  0.0108  0.7261  -8.1349   0.0000   0.2891


