xflr5 v6.47

 Calculated polar for: NACA24018_theta30_Ku4.5_Kl0.5_d0.10_delta2.45

 1 1 Reynolds number fixed          Mach number fixed         

 xtrf =   1.000 (top)        1.000 (bottom)
 Mach =   0.000     Re =     2.400 e 6     Ncrit =   5.000

  alpha     CL        CD       CDp       Cm    Top Xtr Bot Xtr   Cpmin    Chinge    XCp    
 ------- -------- --------- --------- -------- ------- ------- -------- --------- ---------
 -15.000  -1.0563   0.02343   0.01877  -0.0865  0.9573  0.0239  -6.9070   0.0000   0.1451
 -14.800  -1.0390   0.02289   0.01822  -0.0865  0.9560  0.0242  -6.7709   0.0000   0.1440
 -14.600  -1.0189   0.02240   0.01772  -0.0870  0.9552  0.0245  -6.6258   0.0000   0.1421
 -14.400  -0.9964   0.02198   0.01728  -0.0878  0.9547  0.0248  -6.4734   0.0000   0.1396
 -14.200  -0.9884   0.02135   0.01664  -0.0860  0.9517  0.0251  -6.3728   0.0000   0.1411
 -14.000  -0.9749   0.02085   0.01612  -0.0851  0.9500  0.0252  -6.2538   0.0000   0.1412
 -13.800  -0.9576   0.02037   0.01563  -0.0848  0.9491  0.0256  -6.1226   0.0000   0.1401
 -13.600  -0.9396   0.01990   0.01515  -0.0848  0.9484  0.0261  -5.9901   0.0000   0.1387
 -13.400  -0.9203   0.01947   0.01472  -0.0849  0.9479  0.0265  -5.8541   0.0000   0.1369
 -13.000  -0.9176   0.01851   0.01373  -0.0783  0.9430  0.0271  -5.7046   0.0000   0.1447
 -12.800  -0.8990   0.01809   0.01331  -0.0781  0.9421  0.0275  -5.5725   0.0000   0.1433
 -12.600  -0.8780   0.01770   0.01292  -0.0783  0.9414  0.0279  -5.4340   0.0000   0.1412
 -12.400  -0.8559   0.01734   0.01255  -0.0787  0.9409  0.0283  -5.2929   0.0000   0.1386
 -12.200  -0.8327   0.01699   0.01219  -0.0792  0.9405  0.0286  -5.1498   0.0000   0.1356
 -12.000  -0.8311   0.01662   0.01181  -0.0757  0.9364  0.0287  -5.0763   0.0000   0.1400
 -11.800  -0.8119   0.01626   0.01145  -0.0754  0.9346  0.0292  -4.9529   0.0000   0.1383
 -11.400  -0.8050   0.01580   0.01099  -0.0690  0.9133  0.0300  -4.8039   0.0000   0.1463
 -11.200  -0.7820   0.01549   0.01068  -0.0694  0.9096  0.0306  -4.6711   0.0000   0.1434
 -11.000  -0.7569   0.01516   0.01036  -0.0701  0.9069  0.0313  -4.5334   0.0000   0.1396
 -10.800  -0.7302   0.01483   0.01003  -0.0711  0.9037  0.0319  -4.3927   0.0000   0.1348
 -10.600  -0.7014   0.01449   0.00968  -0.0725  0.8994  0.0323  -4.2480   0.0000   0.1289
 -10.400  -0.6686   0.01406   0.00925  -0.0746  0.8959  0.0329  -4.0938   0.0000   0.1205
 -10.200  -0.6301   0.01353   0.00871  -0.0778  0.8890  0.0339  -3.9265   0.0000   0.1083
 -10.000  -0.5772   0.01276   0.00790  -0.0839  0.8753  0.0351  -3.7231   0.0000   0.0859
  -9.800  -0.5320   0.01213   0.00712  -0.0884  0.8346  0.0362  -3.5502   0.0000   0.0643
  -9.600  -0.5162   0.01202   0.00686  -0.0873  0.7947  0.0366  -3.4547   0.0000   0.0616
  -9.400  -0.4985   0.01191   0.00666  -0.0865  0.7672  0.0375  -3.3555   0.0000   0.0570
  -9.200  -0.4787   0.01179   0.00647  -0.0862  0.7465  0.0384  -3.2521   0.0000   0.0505
  -9.000  -0.4580   0.01168   0.00630  -0.0860  0.7269  0.0393  -3.1476   0.0000   0.0426
  -8.800  -0.4364   0.01158   0.00614  -0.0860  0.7072  0.0402  -3.0422   0.0000   0.0332
  -8.600  -0.4143   0.01149   0.00599  -0.0860  0.6879  0.0409  -2.9394   0.0000   0.0223
  -8.400  -0.3915   0.01139   0.00583  -0.0862  0.6695  0.0419  -2.8384   0.0000   0.0093
  -8.200  -0.3682   0.01129   0.00568  -0.0865  0.6510  0.0432  -2.7373   0.0000  -0.0059
  -8.000  -0.3445   0.01120   0.00555  -0.0869  0.6329  0.0444  -2.6365   0.0000  -0.0237
  -7.800  -0.3204   0.01112   0.00542  -0.0873  0.6177  0.0455  -2.5363   0.0000  -0.0446
  -7.600  -0.2961   0.01105   0.00530  -0.0878  0.6031  0.0468  -2.4368   0.0000  -0.0694
  -7.400  -0.2713   0.01096   0.00518  -0.0883  0.5869  0.0487  -2.3376   0.0000  -0.0996
  -7.200  -0.2464   0.01089   0.00507  -0.0889  0.5699  0.0505  -2.2394   0.0000  -0.1362
  -7.000  -0.2212   0.01083   0.00496  -0.0895  0.5545  0.0521  -2.1423   0.0000  -0.1816
  -6.800  -0.1957   0.01076   0.00486  -0.0902  0.5416  0.0542  -2.0458   0.0000  -0.2400
  -6.600  -0.1703   0.01071   0.00477  -0.0909  0.5277  0.0561  -1.9509   0.0000  -0.3153
  -6.400  -0.1452   0.01067   0.00469  -0.0915  0.5127  0.0580  -1.8579   0.0000  -0.4157
  -6.200  -0.1198   0.01063   0.00461  -0.0921  0.4973  0.0607  -1.7660   0.0000  -0.5596
  -6.000  -0.0948   0.01060   0.00454  -0.0927  0.4833  0.0629  -1.6834   0.0000  -0.7771
  -5.800  -0.0697   0.01057   0.00449  -0.0932  0.4702  0.0652  -1.6028   0.0000  -1.1509
  -5.600  -0.0444   0.01055   0.00443  -0.0939  0.4565  0.0683  -1.5229   0.0000  -1.9597
  -5.400  -0.0193   0.01054   0.00438  -0.0944  0.4433  0.0710  -1.4471   0.0000  -4.8417
  -5.200   0.0062   0.01051   0.00434  -0.0951  0.4315  0.0752  -1.3730   0.0000  16.1950
  -5.000   0.0313   0.01051   0.00431  -0.0957  0.4209  0.0785  -1.3005   0.0000   3.4135
  -4.800   0.0568   0.01049   0.00427  -0.0963  0.4118  0.0825  -1.2288   0.0000   2.0039
  -4.600   0.0821   0.01049   0.00425  -0.0969  0.4011  0.0866  -1.1582   0.0000   1.4676
  -4.400   0.1077   0.01048   0.00423  -0.0976  0.3899  0.0922  -1.0883   0.0000   1.1822
  -4.200   0.1331   0.01048   0.00421  -0.0982  0.3799  0.0977  -1.0222   0.0000   1.0072
  -4.000   0.1589   0.01048   0.00420  -0.0989  0.3703  0.1048  -0.9575   0.0000   0.8872
  -3.800   0.1850   0.01047   0.00420  -0.0996  0.3625  0.1132  -0.8935   0.0000   0.8004
  -3.600   0.2113   0.01048   0.00420  -0.1005  0.3536  0.1242  -0.8302   0.0000   0.7347
  -3.400   0.2374   0.01048   0.00421  -0.1013  0.3454  0.1347  -0.8159   0.0000   0.6836
  -3.200   0.2639   0.01048   0.00423  -0.1021  0.3380  0.1472  -0.8432   0.0000   0.6424
  -3.000   0.2914   0.01047   0.00425  -0.1032  0.3324  0.1643  -0.8713   0.0000   0.6083
  -2.600   0.3530   0.01037   0.00432  -0.1068  0.3210  0.2340  -0.9325   0.0000   0.5547
  -2.400   0.3900   0.01029   0.00439  -0.1100  0.3143  0.2965  -0.9676   0.0000   0.5333
  -2.200   0.4247   0.01026   0.00447  -0.1126  0.3078  0.3453  -1.0014   0.0000   0.5157
  -2.000   0.4586   0.01024   0.00457  -0.1150  0.3031  0.3868  -1.0362   0.0000   0.5008
  -1.800   0.4909   0.01027   0.00466  -0.1171  0.2972  0.4218  -1.0713   0.0000   0.4880
  -1.600   0.5219   0.01031   0.00475  -0.1189  0.2924  0.4483  -1.1062   0.0000   0.4767
  -1.400   0.5511   0.01036   0.00484  -0.1202  0.2891  0.4689  -1.1401   0.0000   0.4667
  -1.200   0.5796   0.01042   0.00492  -0.1215  0.2855  0.4862  -1.1737   0.0000   0.4576
  -1.000   0.6087   0.01049   0.00502  -0.1228  0.2813  0.5052  -1.2080   0.0000   0.4494
  -0.800   0.6393   0.01056   0.00513  -0.1245  0.2779  0.5263  -1.2435   0.0000   0.4420
  -0.600   0.6692   0.01063   0.00524  -0.1259  0.2748  0.5462  -1.2789   0.0000   0.4352
  -0.400   0.6970   0.01073   0.00534  -0.1270  0.2707  0.5591  -1.3137   0.0000   0.4289
  -0.200   0.7220   0.01083   0.00543  -0.1275  0.2666  0.5662  -1.3471   0.0000   0.4229
   0.000   0.7476   0.01092   0.00552  -0.1281  0.2635  0.5722  -1.3812   0.0000   0.4173
   0.200   0.7732   0.01101   0.00561  -0.1287  0.2614  0.5793  -1.4155   0.0000   0.4121
   0.400   0.7977   0.01111   0.00570  -0.1290  0.2584  0.5849  -1.4491   0.0000   0.4072
   0.600   0.8236   0.01122   0.00581  -0.1297  0.2545  0.5914  -1.4840   0.0000   0.4026
   0.800   0.8480   0.01135   0.00591  -0.1300  0.2499  0.5974  -1.5179   0.0000   0.3982
   1.000   0.8730   0.01145   0.00601  -0.1305  0.2478  0.6033  -1.5543   0.0000   0.3941
   1.200   0.8986   0.01156   0.00613  -0.1311  0.2448  0.6104  -1.5930   0.0000   0.3902
   1.400   0.9225   0.01168   0.00624  -0.1313  0.2415  0.6162  -1.6303   0.0000   0.3865
   1.600   0.9478   0.01181   0.00637  -0.1319  0.2382  0.6222  -1.6692   0.0000   0.3830
   1.800   0.9724   0.01194   0.00649  -0.1323  0.2353  0.6285  -1.7076   0.0000   0.3796
   2.000   0.9965   0.01206   0.00661  -0.1326  0.2336  0.6342  -1.7458   0.0000   0.3763
   2.200   1.0222   0.01218   0.00675  -0.1332  0.2311  0.6410  -1.7857   0.0000   0.3733
   2.400   1.0459   0.01233   0.00688  -0.1334  0.2278  0.6470  -1.8240   0.0000   0.3703
   2.600   1.0699   0.01249   0.00703  -0.1337  0.2238  0.6526  -1.8627   0.0000   0.3674
   2.800   1.0946   0.01264   0.00718  -0.1341  0.2209  0.6591  -1.9029   0.0000   0.3647
   3.000   1.1179   0.01277   0.00732  -0.1342  0.2186  0.6648  -1.9448   0.0000   0.3620
   3.200   1.1426   0.01293   0.00748  -0.1347  0.2157  0.6707  -1.9887   0.0000   0.3596
   3.400   1.1663   0.01310   0.00765  -0.1349  0.2128  0.6770  -2.0319   0.0000   0.3571
   3.800   1.2135   0.01344   0.00799  -0.1353  0.2076  0.6882  -2.1187   0.0000   0.3524
   4.000   1.2369   0.01360   0.00815  -0.1355  0.2054  0.6942  -2.1623   0.0000   0.3501
   4.200   1.2590   0.01378   0.00833  -0.1354  0.2021  0.6990  -2.2048   0.0000   0.3479
   4.400   1.2827   0.01400   0.00854  -0.1357  0.1979  0.7049  -2.2495   0.0000   0.3458
   4.600   1.3052   0.01420   0.00873  -0.1357  0.1948  0.7105  -2.2969   0.0000   0.3437
   5.000   1.3508   0.01456   0.00911  -0.1358  0.1910  0.7203  -2.3935   0.0000   0.3397
   5.200   1.3729   0.01477   0.00932  -0.1357  0.1883  0.7255  -2.4413   0.0000   0.3378
   5.400   1.3934   0.01500   0.00953  -0.1354  0.1848  0.7298  -2.4875   0.0000   0.3358
   5.600   1.4153   0.01522   0.00976  -0.1353  0.1818  0.7340  -2.5356   0.0000   0.3339
   5.800   1.4375   0.01542   0.00998  -0.1352  0.1795  0.7388  -2.5856   0.0000   0.3321
   6.000   1.4582   0.01565   0.01020  -0.1349  0.1764  0.7433  -2.6351   0.0000   0.3302
   6.200   1.4778   0.01592   0.01045  -0.1344  0.1727  0.7471  -2.6854   0.0000   0.3284
   6.400   1.4991   0.01618   0.01071  -0.1342  0.1695  0.7515  -2.7407   0.0000   0.3266
   6.600   1.5202   0.01640   0.01095  -0.1340  0.1676  0.7560  -2.7962   0.0000   0.3249
   6.800   1.5403   0.01664   0.01120  -0.1336  0.1653  0.7601  -2.8506   0.0000   0.3232
   7.000   1.5590   0.01693   0.01147  -0.1329  0.1621  0.7634  -2.9033   0.0000   0.3214
   7.200   1.5776   0.01727   0.01180  -0.1322  0.1578  0.7669  -2.9562   0.0000   0.3197
   7.400   1.5968   0.01753   0.01208  -0.1317  0.1557  0.7704  -3.0112   0.0000   0.3180
   7.600   1.6152   0.01783   0.01238  -0.1310  0.1529  0.7740  -3.0691   0.0000   0.3163
   7.800   1.6322   0.01819   0.01272  -0.1300  0.1490  0.7775  -3.1253   0.0000   0.3146
   8.000   1.6496   0.01854   0.01306  -0.1292  0.1453  0.7805  -3.1845   0.0000   0.3129
   8.200   1.6676   0.01886   0.01339  -0.1285  0.1423  0.7839  -3.2505   0.0000   0.3112
   8.400   1.6844   0.01923   0.01376  -0.1275  0.1389  0.7870  -3.3147   0.0000   0.3096
   8.600   1.7005   0.01963   0.01415  -0.1265  0.1351  0.7900  -3.3780   0.0000   0.3079
   8.800   1.7179   0.01996   0.01449  -0.1256  0.1330  0.7928  -3.4466   0.0000   0.3063
   9.000   1.7338   0.02035   0.01488  -0.1246  0.1302  0.7952  -3.5131   0.0000   0.3047
   9.200   1.7480   0.02083   0.01535  -0.1233  0.1267  0.7979  -3.5768   0.0000   0.3030
   9.400   1.7624   0.02127   0.01580  -0.1220  0.1234  0.8007  -3.6427   0.0000   0.3013
   9.600   1.7774   0.02170   0.01623  -0.1208  0.1204  0.8034  -3.7160   0.0000   0.2997
   9.800   1.7905   0.02224   0.01676  -0.1194  0.1161  0.8060  -3.7877   0.0000   0.2981
  10.000   1.8041   0.02276   0.01728  -0.1180  0.1126  0.8083  -3.8621   0.0000   0.2965
  10.200   1.8177   0.02328   0.01780  -0.1167  0.1099  0.8102  -3.9372   0.0000   0.2949
  10.400   1.8297   0.02388   0.01840  -0.1152  0.1065  0.8120  -4.0093   0.0000   0.2932
  10.600   1.8413   0.02447   0.01899  -0.1136  0.1033  0.8141  -4.0808   0.0000   0.2916
  10.800   1.8537   0.02500   0.01954  -0.1121  0.1011  0.8164  -4.1570   0.0000   0.2900
  11.000   1.8638   0.02568   0.02023  -0.1103  0.0979  0.8187  -4.2323   0.0000   0.2883
  11.200   1.8731   0.02644   0.02098  -0.1085  0.0942  0.8209  -4.3076   0.0000   0.2867
  11.400   1.8843   0.02712   0.02167  -0.1070  0.0916  0.8229  -4.3879   0.0000   0.2852
  11.600   1.8931   0.02795   0.02250  -0.1053  0.0883  0.8246  -4.4630   0.0000   0.2836
  11.800   1.9021   0.02882   0.02337  -0.1036  0.0852  0.8261  -4.5398   0.0000   0.2820
  12.000   1.9124   0.02962   0.02419  -0.1022  0.0829  0.8275  -4.6220   0.0000   0.2806
  12.200   1.9184   0.03057   0.02515  -0.1001  0.0801  0.8293  -4.6935   0.0000   0.2789
  12.400   1.9235   0.03161   0.02620  -0.0981  0.0773  0.8311  -4.7625   0.0000   0.2773
  12.600   1.9313   0.03251   0.02713  -0.0964  0.0755  0.8329  -4.8391   0.0000   0.2758
  12.800   1.9372   0.03358   0.02823  -0.0947  0.0732  0.8345  -4.9111   0.0000   0.2743
  13.000   1.9409   0.03487   0.02953  -0.0928  0.0705  0.8361  -4.9770   0.0000   0.2728
  13.200   1.9472   0.03603   0.03071  -0.0913  0.0685  0.8375  -5.0502   0.0000   0.2715
  13.400   1.9529   0.03730   0.03200  -0.0899  0.0664  0.8389  -5.1222   0.0000   0.2702
  13.600   1.9563   0.03882   0.03354  -0.0884  0.0641  0.8402  -5.1879   0.0000   0.2688
  13.800   1.9607   0.04032   0.03506  -0.0871  0.0622  0.8414  -5.2587   0.0000   0.2676
  14.000   1.9662   0.04178   0.03656  -0.0860  0.0607  0.8423  -5.3331   0.0000   0.2665
  14.200   1.9679   0.04339   0.03819  -0.0845  0.0589  0.8436  -5.3963   0.0000   0.2652
  14.400   1.9666   0.04525   0.04009  -0.0830  0.0570  0.8449  -5.4502   0.0000   0.2640
  14.600   1.9667   0.04704   0.04192  -0.0816  0.0555  0.8462  -5.5082   0.0000   0.2628
  14.800   1.9669   0.04888   0.04381  -0.0805  0.0541  0.8473  -5.5715   0.0000   0.2617
  15.000   1.9653   0.05099   0.04596  -0.0794  0.0525  0.8484  -5.6304   0.0000   0.2607
  15.200   1.9615   0.05343   0.04843  -0.0784  0.0509  0.8495  -5.6813   0.0000   0.2597
  15.400   1.9596   0.05574   0.05079  -0.0777  0.0496  0.8505  -5.7388   0.0000   0.2589
  15.600   1.9580   0.05813   0.05324  -0.0772  0.0484  0.8515  -5.7967   0.0000   0.2581
  15.800   1.9544   0.06083   0.05599  -0.0768  0.0470  0.8524  -5.8473   0.0000   0.2575
  16.000   1.9481   0.06390   0.05910  -0.0766  0.0456  0.8532  -5.8880   0.0000   0.2569
  16.200   1.9418   0.06703   0.06230  -0.0765  0.0444  0.8539  -5.9282   0.0000   0.2565
  16.400   1.9368   0.07011   0.06544  -0.0767  0.0435  0.8546  -5.9721   0.0000   0.2561
  16.600   1.9298   0.07349   0.06888  -0.0770  0.0424  0.8552  -6.0083   0.0000   0.2558
  16.800   1.9211   0.07715   0.07260  -0.0775  0.0414  0.8557  -6.0372   0.0000   0.2556
  17.000   1.9102   0.08117   0.07669  -0.0782  0.0404  0.8561  -6.0564   0.0000   0.2556
  17.200   1.8994   0.08520   0.08079  -0.0791  0.0396  0.8565  -6.0753   0.0000   0.2557
  17.400   1.8907   0.08902   0.08468  -0.0801  0.0391  0.8569  -6.1011   0.0000   0.2558
  17.600   1.8810   0.09301   0.08874  -0.0812  0.0384  0.8573  -6.1219   0.0000   0.2560
  17.800   1.8694   0.09714   0.09295  -0.0824  0.0378  0.8577  -6.1340   0.0000   0.2563
  18.000   1.8557   0.10150   0.09739  -0.0837  0.0371  0.8582  -6.1362   0.0000   0.2568
  18.200   1.8405   0.10610   0.10207  -0.0854  0.0365  0.8586  -6.1304   0.0000   0.2574
  18.400   1.8250   0.11076   0.10681  -0.0871  0.0359  0.8590  -6.1216   0.0000   0.2581
  18.600   1.8105   0.11530   0.11143  -0.0890  0.0352  0.8594  -6.1147   0.0000   0.2589
  18.800   1.7989   0.11941   0.11561  -0.0908  0.0348  0.8599  -6.1187   0.0000   0.2595
  19.000   1.7873   0.12352   0.11979  -0.0926  0.0343  0.8604  -6.1212   0.0000   0.2603
  19.200   1.7761   0.12758   0.12392  -0.0946  0.0337  0.8610  -6.1237   0.0000   0.2611
  19.400   1.7651   0.13161   0.12802  -0.0967  0.0331  0.8615  -6.1255   0.0000   0.2619
  19.600   1.7528   0.13589   0.13236  -0.0990  0.0325  0.8620  -6.1195   0.0000   0.2630
  19.800   1.7403   0.14024   0.13678  -0.1016  0.0319  0.8625  -6.1103   0.0000   0.2642
  20.000   1.7289   0.14446   0.14106  -0.1042  0.0312  0.8630  -6.1041   0.0000   0.2654
  20.200   1.7232   0.14779   0.14444  -0.1062  0.0308  0.8636  -6.1246   0.0000   0.2661
  20.400   1.7147   0.15165   0.14836  -0.1088  0.0303  0.8641  -6.1293   0.0000   0.2673
  20.600   1.7101   0.15489   0.15164  -0.1109  0.0297  0.8646  -6.1523   0.0000   0.2680
  20.800   1.7018   0.15877   0.15558  -0.1137  0.0292  0.8651  -6.1547   0.0000   0.2693
  21.000   1.6959   0.16224   0.15909  -0.1162  0.0286  0.8658  -6.1687   0.0000   0.2703
  21.200   1.6883   0.16601   0.16291  -0.1191  0.0280  0.8664  -6.1720   0.0000   0.2716
  21.400   1.6834   0.16936   0.16629  -0.1216  0.0274  0.8670  -6.1880   0.0000   0.2727
  21.600   1.6785   0.17274   0.16973  -0.1243  0.0270  0.8676  -6.2028   0.0000   0.2738
  21.800   1.6772   0.17554   0.17256  -0.1266  0.0265  0.8682  -6.2367   0.0000   0.2745
  22.000   1.6714   0.17914   0.17621  -0.1296  0.0260  0.8688  -6.2436   0.0000   0.2759
  22.200   1.6696   0.18207   0.17917  -0.1320  0.0255  0.8693  -6.2724   0.0000   0.2767
  22.400   1.6648   0.18553   0.18268  -0.1350  0.0249  0.8698  -6.2826   0.0000   0.2781
  22.600   1.6613   0.18879   0.18597  -0.1379  0.0244  0.8702  -6.2990   0.0000   0.2793
  22.800   1.6606   0.19156   0.18877  -0.1404  0.0239  0.8706  -6.3314   0.0000   0.2801
  23.000   1.6571   0.19487   0.19212  -0.1435  0.0236  0.8711  -6.3462   0.0000   0.2814
  23.200   1.6570   0.19758   0.19487  -0.1460  0.0231  0.8715  -6.3845   0.0000   0.2822
  23.400   1.6560   0.20006   0.19737  -0.1482  0.0227  0.8721  -6.4226   0.0000   0.2829
  23.600   1.6498   0.20329   0.20065  -0.1510  0.0223  0.8727  -6.4270   0.0000   0.2842
  23.800   1.6472   0.20585   0.20325  -0.1533  0.0218  0.8733  -6.4545   0.0000   0.2850
  24.000   1.6449   0.20837   0.20579  -0.1555  0.0214  0.8739  -6.4836   0.0000   0.2857
  24.200   1.6388   0.21165   0.20911  -0.1585  0.0210  0.8743  -6.4840   0.0000   0.2872
  24.400   1.6385   0.21384   0.21134  -0.1605  0.0206  0.8748  -6.5249   0.0000   0.2877
  24.600   1.6382   0.21605   0.21358  -0.1626  0.0203  0.8753  -6.5652   0.0000   0.2882
  24.800   1.6336   0.21913   0.21669  -0.1655  0.0199  0.8757  -6.5722   0.0000   0.2896
  25.000   1.6321   0.22159   0.21919  -0.1679  0.0194  0.8763  -6.6018   0.0000   0.2904


