xflr5 v6.47

 Calculated polar for: NACA24018_theta30_Ku4.5_Kl0.5_d0.17_delta4.56

 1 1 Reynolds number fixed          Mach number fixed         

 xtrf =   1.000 (top)        1.000 (bottom)
 Mach =   0.000     Re =     2.200 e 6     Ncrit =   5.000

  alpha     CL        CD       CDp       Cm    Top Xtr Bot Xtr   Cpmin    Chinge    XCp    
 ------- -------- --------- --------- -------- ------- ------- -------- --------- ---------
 -15.000  -0.9514   0.02629   0.02174  -0.0942  0.9075  0.0268  -6.4590   0.0000   0.1278
 -14.800  -0.9366   0.02588   0.02133  -0.0938  0.9074  0.0272  -6.3353   0.0000   0.1269
 -14.600  -0.9203   0.02550   0.02095  -0.0937  0.9073  0.0276  -6.2067   0.0000   0.1255
 -14.400  -0.9001   0.02513   0.02057  -0.0941  0.9071  0.0280  -6.0648   0.0000   0.1229
 -14.200  -0.8752   0.02474   0.02018  -0.0952  0.9068  0.0284  -5.9080   0.0000   0.1188
 -14.000  -0.8475   0.02435   0.01979  -0.0967  0.9065  0.0288  -5.7423   0.0000   0.1134
 -13.800  -0.8175   0.02397   0.01941  -0.0986  0.9062  0.0292  -5.5710   0.0000   0.1069
 -13.600  -0.8036   0.02354   0.01897  -0.0977  0.9027  0.0294  -5.4557   0.0000   0.1062
 -13.400  -0.7775   0.02315   0.01857  -0.0988  0.9014  0.0298  -5.3007   0.0000   0.1006
 -13.200  -0.7486   0.02274   0.01817  -0.1005  0.9005  0.0304  -5.1418   0.0000   0.0934
 -13.000  -0.7187   0.02236   0.01780  -0.1023  0.9000  0.0311  -4.9840   0.0000   0.0852
 -12.800  -0.6890   0.02203   0.01747  -0.1040  0.8996  0.0318  -4.8286   0.0000   0.0764
 -12.600  -0.6587   0.02171   0.01716  -0.1058  0.8992  0.0324  -4.6732   0.0000   0.0665
 -12.400  -0.6282   0.02141   0.01686  -0.1076  0.8989  0.0329  -4.5192   0.0000   0.0556
 -12.200  -0.5963   0.02108   0.01653  -0.1096  0.8987  0.0336  -4.3634   0.0000   0.0427
 -12.000  -0.5640   0.02075   0.01622  -0.1118  0.8984  0.0344  -4.2084   0.0000   0.0279
 -11.800  -0.5323   0.02045   0.01593  -0.1138  0.8982  0.0352  -4.0568   0.0000   0.0118
 -10.000  -0.3412   0.02036   0.01595  -0.1147  0.8504  0.0422  -3.0600   0.0000  -0.1146
  -9.800  -0.2980   0.01976   0.01535  -0.1184  0.8457  0.0436  -2.9024   0.0000  -0.1784
  -9.600  -0.2480   0.01891   0.01448  -0.1233  0.8403  0.0452  -2.7378   0.0000  -0.2829
  -9.400  -0.1648   0.01686   0.01229  -0.1342  0.8144  0.0482  -2.5061   0.0000  -0.6151
  -9.200  -0.1492   0.01689   0.01203  -0.1331  0.7466  0.0492  -2.4255   0.0000  -0.6964
  -9.000  -0.1300   0.01704   0.01207  -0.1328  0.7134  0.0506  -2.3380   0.0000  -0.8312
  -8.800  -0.1080   0.01713   0.01208  -0.1329  0.6891  0.0521  -2.2456   0.0000  -1.0500
  -8.600  -0.0846   0.01720   0.01207  -0.1332  0.6675  0.0536  -2.1515   0.0000  -1.4107
  -8.400  -0.0596   0.01724   0.01206  -0.1339  0.6457  0.0558  -2.0555   0.0000  -2.1142
  -8.200  -0.0348   0.01729   0.01203  -0.1345  0.6228  0.0577  -1.9618   0.0000  -3.8075
  -8.000  -0.0091   0.01733   0.01200  -0.1353  0.6006  0.0599  -1.8716   0.0000  -15.2538
  -7.800   0.0172   0.01736   0.01197  -0.1361  0.5808  0.0623  -1.7815   0.0000   8.5339
  -7.600   0.0435   0.01739   0.01195  -0.1370  0.5643  0.0643  -1.6927   0.0000   3.5323
  -7.400   0.0708   0.01742   0.01193  -0.1380  0.5474  0.0670  -1.6055   0.0000   2.2787
  -7.200   0.0976   0.01744   0.01189  -0.1389  0.5298  0.0694  -1.5226   0.0000   1.7287
  -7.000   0.1254   0.01746   0.01186  -0.1401  0.5115  0.0727  -1.4409   0.0000   1.4073
  -6.800   0.1528   0.01749   0.01184  -0.1411  0.4951  0.0761  -1.3635   0.0000   1.2052
  -6.600   0.1803   0.01754   0.01185  -0.1422  0.4796  0.0804  -1.2868   0.0000   1.0638
  -6.400   0.2076   0.01759   0.01186  -0.1432  0.4635  0.0846  -1.2118   0.0000   0.9606
  -6.200   0.2346   0.01765   0.01187  -0.1441  0.4477  0.0893  -1.1383   0.0000   0.8817
  -6.000   0.2624   0.01772   0.01192  -0.1452  0.4349  0.0951  -1.0648   0.0000   0.8181
  -5.800   0.2903   0.01780   0.01197  -0.1464  0.4225  0.1015  -0.9924   0.0000   0.7666
  -5.600   0.3178   0.01788   0.01202  -0.1474  0.4091  0.1078  -0.9218   0.0000   0.7243
  -5.400   0.3455   0.01796   0.01208  -0.1485  0.3973  0.1151  -0.8550   0.0000   0.6887
  -5.200   0.3738   0.01806   0.01215  -0.1497  0.3852  0.1245  -0.8306   0.0000   0.6581
  -5.000   0.4023   0.01816   0.01225  -0.1509  0.3753  0.1348  -0.8600   0.0000   0.6315
  -4.800   0.4314   0.01827   0.01236  -0.1522  0.3652  0.1473  -0.8900   0.0000   0.6083
  -4.600   0.4631   0.01841   0.01252  -0.1541  0.3549  0.1684  -0.9219   0.0000   0.5873
  -4.400   0.4965   0.01856   0.01271  -0.1563  0.3465  0.1947  -0.9553   0.0000   0.5686
  -4.200   0.5329   0.01875   0.01298  -0.1591  0.3392  0.2317  -0.9911   0.0000   0.5516
  -4.000   0.5851   0.01910   0.01351  -0.1651  0.3304  0.3130  -1.0383   0.0000   0.5344
  -3.800   0.6233   0.01935   0.01384  -0.1682  0.3251  0.3539  -1.0760   0.0000   0.5215
  -3.600   0.6573   0.01956   0.01408  -0.1705  0.3188  0.3820  -1.1111   0.0000   0.5105
  -3.400   0.6907   0.01977   0.01432  -0.1726  0.3123  0.4069  -1.1459   0.0000   0.5005
  -3.200   0.7232   0.01998   0.01457  -0.1746  0.3069  0.4303  -1.1804   0.0000   0.4915
  -3.000   0.7545   0.02019   0.01478  -0.1763  0.3001  0.4501  -1.2149   0.0000   0.4834
  -2.800   0.7852   0.02041   0.01501  -0.1778  0.2952  0.4677  -1.2512   0.0000   0.4758
  -2.600   0.8168   0.02065   0.01528  -0.1796  0.2922  0.4874  -1.2886   0.0000   0.4688
  -2.400   0.8483   0.02090   0.01555  -0.1813  0.2881  0.5064  -1.3262   0.0000   0.4623
  -2.200   0.8776   0.02113   0.01578  -0.1826  0.2830  0.5211  -1.3622   0.0000   0.4563
  -2.000   0.9045   0.02133   0.01597  -0.1834  0.2786  0.5306  -1.3974   0.0000   0.4506
  -1.800   0.9283   0.02148   0.01610  -0.1836  0.2760  0.5348  -1.4307   0.0000   0.4453
  -1.600   0.9546   0.02167   0.01630  -0.1843  0.2727  0.5406  -1.4670   0.0000   0.4403
  -1.400   0.9798   0.02186   0.01646  -0.1847  0.2685  0.5458  -1.5033   0.0000   0.4355
  -1.000   1.0271   0.02218   0.01675  -0.1851  0.2615  0.5540  -1.5736   0.0000   0.4265
  -0.800   1.0518   0.02237   0.01693  -0.1854  0.2591  0.5584  -1.6100   0.0000   0.4223
  -0.600   1.0776   0.02258   0.01714  -0.1860  0.2562  0.5643  -1.6477   0.0000   0.4184
  -0.400   1.1019   0.02277   0.01732  -0.1863  0.2529  0.5698  -1.6841   0.0000   0.4145
  -0.200   1.1248   0.02295   0.01747  -0.1864  0.2489  0.5741  -1.7196   0.0000   0.4108
   0.000   1.1492   0.02315   0.01767  -0.1867  0.2463  0.5785  -1.7565   0.0000   0.4073
   0.200   1.1742   0.02336   0.01789  -0.1871  0.2434  0.5837  -1.7952   0.0000   0.4039
   0.400   1.1980   0.02357   0.01809  -0.1873  0.2401  0.5886  -1.8350   0.0000   0.4006
   0.600   1.2207   0.02377   0.01827  -0.1873  0.2365  0.5932  -1.8739   0.0000   0.3974
   0.800   1.2435   0.02397   0.01845  -0.1873  0.2329  0.5973  -1.9130   0.0000   0.3943
   1.000   1.2686   0.02422   0.01871  -0.1877  0.2311  0.6027  -1.9548   0.0000   0.3914
   1.200   1.2921   0.02444   0.01893  -0.1879  0.2285  0.6074  -1.9953   0.0000   0.3885
   1.400   1.3143   0.02466   0.01913  -0.1878  0.2251  0.6114  -2.0353   0.0000   0.3857
   1.600   1.3357   0.02488   0.01933  -0.1875  0.2212  0.6148  -2.0770   0.0000   0.3830
   1.800   1.3588   0.02512   0.01957  -0.1876  0.2180  0.6192  -2.1207   0.0000   0.3803
   2.000   1.3829   0.02538   0.01984  -0.1878  0.2159  0.6246  -2.1658   0.0000   0.3778
   2.200   1.4054   0.02563   0.02009  -0.1878  0.2136  0.6294  -2.2095   0.0000   0.3753
   2.400   1.4268   0.02588   0.02033  -0.1875  0.2109  0.6336  -2.2522   0.0000   0.3729
   2.600   1.4475   0.02613   0.02056  -0.1871  0.2074  0.6370  -2.2942   0.0000   0.3704
   2.800   1.4708   0.02643   0.02086  -0.1873  0.2042  0.6419  -2.3396   0.0000   0.3682
   3.000   1.4931   0.02671   0.02115  -0.1872  0.2017  0.6462  -2.3855   0.0000   0.3659
   3.200   1.5142   0.02698   0.02142  -0.1869  0.1990  0.6499  -2.4320   0.0000   0.3636
   3.400   1.5345   0.02726   0.02169  -0.1864  0.1960  0.6535  -2.4778   0.0000   0.3614
   3.600   1.5541   0.02755   0.02196  -0.1859  0.1922  0.6565  -2.5229   0.0000   0.3592
   3.800   1.5762   0.02786   0.02228  -0.1858  0.1900  0.6609  -2.5715   0.0000   0.3572
   4.000   1.5976   0.02817   0.02260  -0.1855  0.1873  0.6651  -2.6229   0.0000   0.3551
   4.200   1.6179   0.02849   0.02291  -0.1851  0.1843  0.6691  -2.6732   0.0000   0.3531
   4.400   1.6373   0.02882   0.02322  -0.1845  0.1809  0.6727  -2.7228   0.0000   0.3511
   4.600   1.6567   0.02911   0.02351  -0.1839  0.1786  0.6757  -2.7742   0.0000   0.3491
   4.800   1.6764   0.02941   0.02382  -0.1834  0.1763  0.6785  -2.8268   0.0000   0.3471
   5.000   1.6966   0.02977   0.02418  -0.1829  0.1732  0.6820  -2.8816   0.0000   0.3453
   5.200   1.7156   0.03016   0.02455  -0.1823  0.1694  0.6856  -2.9352   0.0000   0.3434
   5.400   1.7346   0.03051   0.02491  -0.1817  0.1665  0.6891  -2.9891   0.0000   0.3415
   5.600   1.7531   0.03087   0.02527  -0.1809  0.1634  0.6923  -3.0425   0.0000   0.3397
   5.800   1.7705   0.03128   0.02565  -0.1800  0.1595  0.6949  -3.0964   0.0000   0.3378
   6.000   1.7874   0.03168   0.02605  -0.1790  0.1563  0.6968  -3.1537   0.0000   0.3359
   6.200   1.8055   0.03210   0.02648  -0.1783  0.1540  0.6999  -3.2131   0.0000   0.3342
   6.400   1.8227   0.03257   0.02695  -0.1773  0.1507  0.7033  -3.2739   0.0000   0.3324
   6.600   1.8385   0.03309   0.02746  -0.1762  0.1466  0.7064  -3.3342   0.0000   0.3306
   6.800   1.8552   0.03354   0.02792  -0.1752  0.1437  0.7093  -3.3983   0.0000   0.3288
   7.000   1.8710   0.03403   0.02840  -0.1741  0.1400  0.7121  -3.4639   0.0000   0.3271
   7.200   1.8858   0.03458   0.02893  -0.1728  0.1360  0.7144  -3.5299   0.0000   0.3253
   7.400   1.9021   0.03504   0.02940  -0.1718  0.1338  0.7163  -3.5993   0.0000   0.3236
   7.600   1.9174   0.03556   0.02992  -0.1706  0.1306  0.7186  -3.6694   0.0000   0.3219
   7.800   1.9309   0.03620   0.03055  -0.1692  0.1263  0.7211  -3.7427   0.0000   0.3202
   8.000   1.9447   0.03681   0.03117  -0.1678  0.1229  0.7237  -3.8179   0.0000   0.3185
   8.200   1.9565   0.03756   0.03190  -0.1661  0.1185  0.7262  -3.8894   0.0000   0.3167
   8.400   1.9699   0.03819   0.03254  -0.1647  0.1155  0.7286  -3.9648   0.0000   0.3150
   8.600   1.9830   0.03885   0.03321  -0.1632  0.1123  0.7308  -4.0400   0.0000   0.3134
   8.800   1.9948   0.03960   0.03394  -0.1616  0.1089  0.7326  -4.1130   0.0000   0.3117
   9.000   2.0078   0.04027   0.03463  -0.1602  0.1067  0.7342  -4.1888   0.0000   0.3100
   9.200   2.0189   0.04107   0.03543  -0.1585  0.1039  0.7357  -4.2613   0.0000   0.3084
   9.400   2.0288   0.04194   0.03630  -0.1567  0.1010  0.7376  -4.3323   0.0000   0.3067
   9.600   2.0402   0.04269   0.03707  -0.1551  0.0984  0.7399  -4.4139   0.0000   0.3051
   9.800   2.0488   0.04364   0.03802  -0.1532  0.0946  0.7418  -4.4892   0.0000   0.3034
  10.000   2.0566   0.04467   0.03906  -0.1511  0.0912  0.7436  -4.5643   0.0000   0.3017
  10.200   2.0638   0.04575   0.04014  -0.1491  0.0875  0.7453  -4.6396   0.0000   0.3000
  10.400   2.0723   0.04676   0.04116  -0.1473  0.0848  0.7472  -4.7184   0.0000   0.2984
  10.600   2.0796   0.04788   0.04230  -0.1453  0.0822  0.7491  -4.7948   0.0000   0.2968
  10.800   2.0859   0.04912   0.04354  -0.1434  0.0795  0.7508  -4.8688   0.0000   0.2952
  11.000   2.0934   0.05027   0.04472  -0.1416  0.0772  0.7523  -4.9462   0.0000   0.2937
  11.200   2.0984   0.05164   0.04610  -0.1395  0.0745  0.7535  -5.0175   0.0000   0.2921
  11.400   2.1039   0.05301   0.04749  -0.1377  0.0722  0.7547  -5.0927   0.0000   0.2906
  11.600   2.1088   0.05440   0.04890  -0.1358  0.0699  0.7561  -5.1665   0.0000   0.2891
  11.800   2.1109   0.05602   0.05054  -0.1337  0.0677  0.7578  -5.2327   0.0000   0.2875
  12.000   2.1145   0.05753   0.05210  -0.1318  0.0659  0.7594  -5.3033   0.0000   0.2861
  12.200   2.1164   0.05924   0.05383  -0.1299  0.0636  0.7609  -5.3740   0.0000   0.2846
  12.400   2.1169   0.06112   0.05575  -0.1280  0.0616  0.7622  -5.4408   0.0000   0.2832
  12.600   2.1189   0.06292   0.05758  -0.1264  0.0596  0.7635  -5.5119   0.0000   0.2819
  12.800   2.1181   0.06504   0.05974  -0.1247  0.0575  0.7647  -5.5745   0.0000   0.2806
  13.000   2.1176   0.06717   0.06190  -0.1231  0.0558  0.7658  -5.6383   0.0000   0.2794
  13.200   2.1171   0.06935   0.06413  -0.1217  0.0541  0.7670  -5.7017   0.0000   0.2782
  13.400   2.1145   0.07183   0.06665  -0.1204  0.0524  0.7682  -5.7579   0.0000   0.2771
  13.600   2.1134   0.07418   0.06905  -0.1193  0.0510  0.7694  -5.8191   0.0000   0.2760
  13.800   2.1118   0.07666   0.07157  -0.1183  0.0495  0.7705  -5.8781   0.0000   0.2751
  14.000   2.1076   0.07947   0.07443  -0.1174  0.0481  0.7714  -5.9282   0.0000   0.2742
  14.200   2.1038   0.08229   0.07729  -0.1167  0.0469  0.7722  -5.9791   0.0000   0.2734
  14.400   2.1004   0.08508   0.08015  -0.1162  0.0457  0.7729  -6.0310   0.0000   0.2727
  14.600   2.0947   0.08812   0.08324  -0.1158  0.0444  0.7737  -6.0740   0.0000   0.2720
  14.800   2.0868   0.09136   0.08654  -0.1155  0.0433  0.7745  -6.1084   0.0000   0.2715
  15.000   2.0813   0.09433   0.08957  -0.1154  0.0423  0.7755  -6.1506   0.0000   0.2710
  15.200   2.0751   0.09742   0.09273  -0.1154  0.0413  0.7765  -6.1895   0.0000   0.2705
  15.400   2.0675   0.10073   0.09610  -0.1156  0.0404  0.7774  -6.2219   0.0000   0.2702
  15.600   2.0587   0.10422   0.09966  -0.1161  0.0395  0.7783  -6.2489   0.0000   0.2701
  15.800   2.0514   0.10753   0.10304  -0.1167  0.0388  0.7792  -6.2805   0.0000   0.2699
  16.000   2.0439   0.11090   0.10648  -0.1174  0.0381  0.7802  -6.3102   0.0000   0.2698
  16.200   2.0354   0.11444   0.11009  -0.1184  0.0373  0.7810  -6.3354   0.0000   0.2699
  16.400   2.0257   0.11816   0.11388  -0.1196  0.0366  0.7818  -6.3558   0.0000   0.2701
  16.600   2.0153   0.12202   0.11781  -0.1211  0.0358  0.7826  -6.3713   0.0000   0.2704
  16.800   2.0058   0.12578   0.12163  -0.1226  0.0352  0.7833  -6.3894   0.0000   0.2708
  17.000   1.9980   0.12931   0.12524  -0.1242  0.0347  0.7841  -6.4130   0.0000   0.2711
  17.200   1.9902   0.13283   0.12883  -0.1258  0.0340  0.7849  -6.4360   0.0000   0.2715
  17.400   1.9806   0.13667   0.13273  -0.1278  0.0334  0.7856  -6.4492   0.0000   0.2721
  17.600   1.9699   0.14069   0.13682  -0.1301  0.0327  0.7863  -6.4557   0.0000   0.2729
  17.800   1.9590   0.14475   0.14095  -0.1325  0.0321  0.7870  -6.4595   0.0000   0.2738
  18.000   1.9514   0.14830   0.14456  -0.1347  0.0316  0.7878  -6.4776   0.0000   0.2745
  18.200   1.9438   0.15187   0.14819  -0.1369  0.0310  0.7886  -6.4978   0.0000   0.2752
  18.400   1.9344   0.15574   0.15212  -0.1396  0.0305  0.7892  -6.5073   0.0000   0.2761
  18.600   1.9262   0.15942   0.15586  -0.1421  0.0298  0.7899  -6.5218   0.0000   0.2770
  18.800   1.9178   0.16313   0.15962  -0.1448  0.0292  0.7904  -6.5339   0.0000   0.2780
  19.000   1.9077   0.16698   0.16353  -0.1476  0.0287  0.7911  -6.5357   0.0000   0.2791
  19.200   1.9030   0.16984   0.16644  -0.1496  0.0282  0.7920  -6.5666   0.0000   0.2796
  19.400   1.8945   0.17337   0.17004  -0.1522  0.0278  0.7928  -6.5748   0.0000   0.2807
  19.600   1.8898   0.17626   0.17297  -0.1544  0.0272  0.7935  -6.6031   0.0000   0.2813
  19.800   1.8811   0.17982   0.17659  -0.1572  0.0267  0.7942  -6.6079   0.0000   0.2824
  20.000   1.8757   0.18282   0.17963  -0.1596  0.0261  0.7950  -6.6300   0.0000   0.2832
  20.200   1.8673   0.18633   0.18320  -0.1625  0.0257  0.7958  -6.6333   0.0000   0.2843
  20.400   1.8643   0.18893   0.18584  -0.1646  0.0252  0.7968  -6.6676   0.0000   0.2849
  20.600   1.8587   0.19198   0.18894  -0.1672  0.0247  0.7976  -6.6858   0.0000   0.2858
  20.800   1.8541   0.19489   0.19189  -0.1698  0.0242  0.7985  -6.7082   0.0000   0.2866
  21.000   1.8507   0.19760   0.19463  -0.1721  0.0236  0.7994  -6.7372   0.0000   0.2873
  21.200   1.8434   0.20104   0.19813  -0.1753  0.0231  0.8002  -6.7399   0.0000   0.2886
  21.400   1.8414   0.20355   0.20067  -0.1777  0.0226  0.8010  -6.7755   0.0000   0.2892
  21.600   1.8373   0.20645   0.20362  -0.1804  0.0222  0.8017  -6.7965   0.0000   0.2901
  21.800   1.8344   0.20915   0.20635  -0.1830  0.0217  0.8025  -6.8241   0.0000   0.2909
  22.000   1.8324   0.21165   0.20888  -0.1854  0.0213  0.8032  -6.8577   0.0000   0.2915
  22.200   1.8270   0.21479   0.21206  -0.1886  0.0208  0.8039  -6.8661   0.0000   0.2927
  22.400   1.8242   0.21744   0.21474  -0.1912  0.0204  0.8045  -6.8926   0.0000   0.2935
  22.600   1.8235   0.21972   0.21706  -0.1936  0.0200  0.8052  -6.9321   0.0000   0.2941
  22.800   1.8196   0.22260   0.21998  -0.1965  0.0197  0.8058  -6.9481   0.0000   0.2951
  23.000   1.8188   0.22489   0.22230  -0.1989  0.0193  0.8063  -6.9857   0.0000   0.2956
  23.200   1.8181   0.22716   0.22459  -0.2013  0.0189  0.8068  -7.0237   0.0000   0.2962
  23.400   1.8129   0.23003   0.22751  -0.2043  0.0186  0.8076  -7.0298   0.0000   0.2973
  23.600   1.8105   0.23233   0.22984  -0.2067  0.0182  0.8084  -7.0563   0.0000   0.2980
  23.800   1.8078   0.23467   0.23221  -0.2092  0.0179  0.8092  -7.0803   0.0000   0.2987
  24.000   1.8040   0.23722   0.23481  -0.2119  0.0176  0.8099  -7.0937   0.0000   0.2996
  24.200   1.8032   0.23919   0.23681  -0.2140  0.0173  0.8107  -7.1308   0.0000   0.3000
  24.400   1.8024   0.24114   0.23879  -0.2161  0.0170  0.8114  -7.1679   0.0000   0.3004
  24.600   1.7984   0.24377   0.24146  -0.2191  0.0167  0.8121  -7.1767   0.0000   0.3014
  24.800   1.7969   0.24591   0.24363  -0.2215  0.0164  0.8127  -7.2055   0.0000   0.3020
  25.000   1.7956   0.24801   0.24575  -0.2239  0.0160  0.8134  -7.2356   0.0000   0.3025


