xflr5 v6.47

 Calculated polar for: NACA24018_theta30_Ku4.5_Kl0.5_d0.21_delta5.84

 1 1 Reynolds number fixed          Mach number fixed         

 xtrf =   1.000 (top)        1.000 (bottom)
 Mach =   0.000     Re =     1.400 e 6     Ncrit =   5.000

  alpha     CL        CD       CDp       Cm    Top Xtr Bot Xtr   Cpmin    Chinge    XCp    
 ------- -------- --------- --------- -------- ------- ------- -------- --------- ---------
 -15.000  -0.8560   0.03204   0.02738  -0.0991  0.8913  0.0312  -6.0065   0.0000   0.1100
 -14.800  -0.8372   0.03170   0.02703  -0.0995  0.8913  0.0315  -5.8755   0.0000   0.1070
 -14.400  -0.8039   0.03089   0.02619  -0.0995  0.8880  0.0322  -5.6315   0.0000   0.1024
 -14.200  -0.7817   0.03052   0.02581  -0.1003  0.8869  0.0325  -5.4921   0.0000   0.0979
 -14.000  -0.7568   0.03016   0.02546  -0.1015  0.8861  0.0331  -5.3451   0.0000   0.0920
 -13.800  -0.7303   0.02984   0.02514  -0.1030  0.8854  0.0336  -5.1934   0.0000   0.0851
 -13.600  -0.7023   0.02955   0.02484  -0.1046  0.8848  0.0342  -5.0383   0.0000   0.0770
 -13.400  -0.6731   0.02927   0.02456  -0.1063  0.8843  0.0349  -4.8855   0.0000   0.0677
 -13.200  -0.6432   0.02902   0.02431  -0.1081  0.8839  0.0355  -4.7340   0.0000   0.0573
 -13.000  -0.6123   0.02877   0.02405  -0.1101  0.8835  0.0361  -4.5812   0.0000   0.0453
 -12.800  -0.5797   0.02850   0.02379  -0.1123  0.8832  0.0371  -4.4254   0.0000   0.0307
 -12.600  -0.5454   0.02823   0.02353  -0.1148  0.8828  0.0379  -4.2663   0.0000   0.0134
 -12.400  -0.5277   0.02796   0.02327  -0.1146  0.8788  0.0386  -4.1576   0.0000   0.0067
 -12.200  -0.4986   0.02776   0.02307  -0.1161  0.8778  0.0394  -4.0172   0.0000  -0.0097
 -12.000  -0.4679   0.02756   0.02286  -0.1179  0.8769  0.0401  -3.8740   0.0000  -0.0296
 -11.800  -0.4353   0.02733   0.02265  -0.1201  0.8763  0.0411  -3.7273   0.0000  -0.0545
 -11.600  -0.4024   0.02711   0.02244  -0.1222  0.8758  0.0423  -3.5818   0.0000  -0.0836
 -11.400  -0.3694   0.02690   0.02224  -0.1244  0.8753  0.0435  -3.4381   0.0000  -0.1180
 -11.200  -0.3348   0.02664   0.02198  -0.1268  0.8749  0.0446  -3.2923   0.0000  -0.1620
 -11.000  -0.2955   0.02624   0.02160  -0.1299  0.8744  0.0461  -3.1434   0.0000  -0.2259
 -10.800  -0.2745   0.02619   0.02156  -0.1300  0.8713  0.0471  -3.0415   0.0000  -0.2614
 -10.600  -0.2465   0.02602   0.02139  -0.1313  0.8688  0.0483  -2.9238   0.0000  -0.3231
 -10.400  -0.2126   0.02576   0.02115  -0.1335  0.8674  0.0499  -2.7937   0.0000  -0.4233
 -10.200  -0.1789   0.02552   0.02093  -0.1357  0.8664  0.0516  -2.6661   0.0000  -0.5603
  -9.200  -0.1004   0.02796   0.02348  -0.1320  0.8253  0.0578  -2.2651   0.0000  -1.1440
  -9.000  -0.0590   0.02747   0.02300  -0.1353  0.8178  0.0601  -2.1349   0.0000  -2.1722
  -8.800  -0.0127   0.02675   0.02227  -0.1393  0.8116  0.0632  -1.9977   0.0000  -11.3207
  -8.600   0.0397   0.02580   0.02132  -0.1443  0.8046  0.0669  -1.8583   0.0000   4.0621
  -8.400   0.1176   0.02369   0.01910  -0.1537  0.7860  0.0724  -1.6763   0.0000   1.6126
  -8.200   0.1581   0.02292   0.01801  -0.1569  0.7248  0.0760  -1.5662   0.0000   1.2818
  -8.000   0.1753   0.02333   0.01826  -0.1563  0.6823  0.0788  -1.4979   0.0000   1.1747
  -7.800   0.1957   0.02365   0.01845  -0.1561  0.6495  0.0821  -1.4253   0.0000   1.0765
  -7.600   0.2193   0.02392   0.01862  -0.1565  0.6203  0.0862  -1.3480   0.0000   0.9882
  -7.400   0.2435   0.02414   0.01874  -0.1571  0.5965  0.0901  -1.2709   0.0000   0.9157
  -7.200   0.2701   0.02434   0.01889  -0.1580  0.5760  0.0956  -1.1948   0.0000   0.8527
  -7.000   0.2969   0.02453   0.01902  -0.1590  0.5565  0.1013  -1.1228   0.0000   0.8007
  -6.800   0.3237   0.02471   0.01915  -0.1599  0.5373  0.1075  -1.0526   0.0000   0.7573
  -6.600   0.3514   0.02490   0.01928  -0.1610  0.5173  0.1153  -0.9820   0.0000   0.7197
  -6.400   0.3796   0.02508   0.01941  -0.1622  0.4977  0.1238  -0.9120   0.0000   0.6873
  -6.200   0.4088   0.02526   0.01955  -0.1636  0.4799  0.1342  -0.8451   0.0000   0.6588
  -6.000   0.4389   0.02546   0.01972  -0.1652  0.4637  0.1473  -0.8439   0.0000   0.6337
  -5.800   0.4694   0.02566   0.01989  -0.1668  0.4473  0.1622  -0.8736   0.0000   0.6116
  -5.600   0.5032   0.02593   0.02016  -0.1691  0.4305  0.1856  -0.9055   0.0000   0.5913
  -5.400   0.5402   0.02628   0.02054  -0.1720  0.4152  0.2194  -0.9406   0.0000   0.5728
  -5.200   0.5930   0.02693   0.02133  -0.1779  0.3993  0.2945  -0.9877   0.0000   0.5536
  -5.000   0.6411   0.02756   0.02206  -0.1830  0.3843  0.3572  -1.0323   0.0000   0.5382
  -4.800   0.6778   0.02799   0.02250  -0.1857  0.3722  0.3900  -1.0703   0.0000   0.5262
  -4.600   0.7098   0.02835   0.02286  -0.1875  0.3628  0.4113  -1.1053   0.0000   0.5158
  -4.400   0.7409   0.02869   0.02319  -0.1892  0.3541  0.4286  -1.1400   0.0000   0.5065
  -4.200   0.7712   0.02902   0.02351  -0.1906  0.3453  0.4432  -1.1743   0.0000   0.4979
  -4.000   0.8020   0.02938   0.02385  -0.1922  0.3370  0.4594  -1.2092   0.0000   0.4899
  -3.800   0.8328   0.02974   0.02421  -0.1937  0.3309  0.4756  -1.2443   0.0000   0.4824
  -3.600   0.8615   0.03006   0.02452  -0.1949  0.3247  0.4900  -1.2781   0.0000   0.4756
  -3.400   0.8939   0.03048   0.02494  -0.1967  0.3192  0.5077  -1.3149   0.0000   0.4691
  -3.200   0.9239   0.03085   0.02532  -0.1981  0.3144  0.5199  -1.3514   0.0000   0.4631
  -3.000   0.9489   0.03110   0.02554  -0.1985  0.3088  0.5272  -1.3856   0.0000   0.4575
  -2.800   0.9735   0.03134   0.02575  -0.1989  0.3026  0.5323  -1.4197   0.0000   0.4523
  -2.600   0.9989   0.03162   0.02602  -0.1994  0.2985  0.5374  -1.4546   0.0000   0.4472
  -2.400   1.0228   0.03187   0.02624  -0.1996  0.2939  0.5419  -1.4886   0.0000   0.4425
  -2.200   1.0459   0.03209   0.02644  -0.1997  0.2895  0.5460  -1.5219   0.0000   0.4379
  -2.000   1.0685   0.03231   0.02663  -0.1997  0.2855  0.5497  -1.5549   0.0000   0.4335
  -1.800   1.0940   0.03261   0.02694  -0.2002  0.2830  0.5549  -1.5908   0.0000   0.4293
  -1.600   1.1183   0.03289   0.02721  -0.2004  0.2798  0.5597  -1.6263   0.0000   0.4253
  -1.400   1.1413   0.03314   0.02745  -0.2005  0.2759  0.5640  -1.6632   0.0000   0.4214
  -1.200   1.1634   0.03337   0.02765  -0.2004  0.2714  0.5676  -1.6995   0.0000   0.4177
  -1.000   1.1861   0.03363   0.02788  -0.2004  0.2677  0.5710  -1.7365   0.0000   0.4141
  -0.800   1.2101   0.03392   0.02818  -0.2006  0.2643  0.5756  -1.7751   0.0000   0.4107
  -0.600   1.2333   0.03420   0.02846  -0.2007  0.2607  0.5804  -1.8131   0.0000   0.4073
  -0.400   1.2556   0.03446   0.02870  -0.2006  0.2573  0.5849  -1.8504   0.0000   0.4041
  -0.200   1.2771   0.03472   0.02893  -0.2004  0.2538  0.5884  -1.8870   0.0000   0.4009
   0.000   1.2996   0.03499   0.02921  -0.2004  0.2516  0.5920  -1.9248   0.0000   0.3979
   0.200   1.3224   0.03528   0.02951  -0.2004  0.2492  0.5960  -1.9632   0.0000   0.3949
   0.400   1.3445   0.03557   0.02980  -0.2003  0.2462  0.6002  -2.0017   0.0000   0.3920
   0.600   1.3662   0.03586   0.03007  -0.2001  0.2426  0.6045  -2.0408   0.0000   0.3892
   0.800   1.3871   0.03615   0.03033  -0.1997  0.2386  0.6081  -2.0826   0.0000   0.3865
   1.000   1.4086   0.03644   0.03062  -0.1995  0.2360  0.6116  -2.1253   0.0000   0.3839
   1.200   1.4304   0.03675   0.03094  -0.1993  0.2332  0.6154  -2.1686   0.0000   0.3813
   1.400   1.4518   0.03706   0.03125  -0.1991  0.2300  0.6194  -2.2115   0.0000   0.3788
   1.600   1.4726   0.03738   0.03155  -0.1988  0.2266  0.6235  -2.2542   0.0000   0.3763
   1.800   1.4930   0.03769   0.03185  -0.1983  0.2230  0.6270  -2.2965   0.0000   0.3739
   2.200   1.5340   0.03831   0.03249  -0.1976  0.2190  0.6332  -2.3821   0.0000   0.3692
   2.400   1.5542   0.03862   0.03281  -0.1971  0.2164  0.6366  -2.4248   0.0000   0.3669
   2.600   1.5740   0.03896   0.03314  -0.1966  0.2133  0.6402  -2.4687   0.0000   0.3647
   2.800   1.5934   0.03931   0.03348  -0.1960  0.2097  0.6439  -2.5127   0.0000   0.3625
   3.000   1.6131   0.03965   0.03382  -0.1955  0.2071  0.6471  -2.5586   0.0000   0.3604
   3.200   1.6327   0.04000   0.03417  -0.1950  0.2045  0.6496  -2.6056   0.0000   0.3583
   3.400   1.6512   0.04036   0.03454  -0.1942  0.2012  0.6529  -2.6527   0.0000   0.3562
   3.600   1.6692   0.04075   0.03492  -0.1934  0.1978  0.6563  -2.7006   0.0000   0.3541
   3.800   1.6870   0.04116   0.03533  -0.1926  0.1946  0.6595  -2.7489   0.0000   0.3521
   4.000   1.7052   0.04156   0.03574  -0.1918  0.1924  0.6626  -2.7983   0.0000   0.3501
   4.200   1.7231   0.04198   0.03617  -0.1910  0.1896  0.6652  -2.8505   0.0000   0.3481
   4.400   1.7408   0.04243   0.03662  -0.1902  0.1865  0.6677  -2.9032   0.0000   0.3462
   4.600   1.7581   0.04292   0.03708  -0.1894  0.1830  0.6700  -2.9557   0.0000   0.3443
   4.800   1.7746   0.04331   0.03750  -0.1883  0.1806  0.6730  -3.0071   0.0000   0.3424
   5.000   1.7910   0.04372   0.03792  -0.1873  0.1781  0.6758  -3.0588   0.0000   0.3405
   5.200   1.8072   0.04415   0.03837  -0.1862  0.1752  0.6784  -3.1140   0.0000   0.3386
   5.400   1.8230   0.04464   0.03885  -0.1851  0.1719  0.6810  -3.1710   0.0000   0.3368
   5.600   1.8392   0.04514   0.03935  -0.1841  0.1687  0.6837  -3.2291   0.0000   0.3350
   5.800   1.8560   0.04565   0.03987  -0.1832  0.1654  0.6863  -3.2885   0.0000   0.3332
   6.000   1.8722   0.04622   0.04043  -0.1821  0.1619  0.6884  -3.3473   0.0000   0.3315
   6.200   1.8865   0.04684   0.04104  -0.1809  0.1587  0.6903  -3.4033   0.0000   0.3297
   6.400   1.8998   0.04737   0.04160  -0.1794  0.1565  0.6926  -3.4646   0.0000   0.3279
   6.600   1.9129   0.04793   0.04217  -0.1779  0.1535  0.6949  -3.5272   0.0000   0.3261
   6.800   1.9253   0.04856   0.04281  -0.1763  0.1496  0.6972  -3.5888   0.0000   0.3243
   7.000   1.9378   0.04922   0.04346  -0.1748  0.1459  0.6995  -3.6521   0.0000   0.3225
   7.200   1.9517   0.04984   0.04410  -0.1735  0.1429  0.7017  -3.7195   0.0000   0.3209
   7.400   1.9650   0.05052   0.04479  -0.1722  0.1397  0.7036  -3.7892   0.0000   0.3192
   7.600   1.9770   0.05133   0.04559  -0.1707  0.1365  0.7054  -3.8585   0.0000   0.3175
   7.800   1.9901   0.05213   0.04640  -0.1693  0.1340  0.7072  -3.9355   0.0000   0.3158
   8.000   2.0030   0.05300   0.04728  -0.1680  0.1306  0.7089  -4.0154   0.0000   0.3142
   8.200   2.0117   0.05384   0.04812  -0.1660  0.1271  0.7107  -4.0858   0.0000   0.3125
   8.400   2.0213   0.05457   0.04887  -0.1642  0.1243  0.7126  -4.1584   0.0000   0.3108
   8.600   2.0303   0.05539   0.04971  -0.1623  0.1211  0.7143  -4.2301   0.0000   0.3091
   8.800   2.0368   0.05645   0.05078  -0.1602  0.1174  0.7160  -4.2964   0.0000   0.3074
   9.000   2.0452   0.05741   0.05175  -0.1583  0.1141  0.7178  -4.3676   0.0000   0.3057
   9.200   2.0530   0.05846   0.05281  -0.1565  0.1103  0.7197  -4.4380   0.0000   0.3041
   9.400   2.0596   0.05968   0.05405  -0.1545  0.1069  0.7215  -4.5057   0.0000   0.3025
   9.600   2.0678   0.06084   0.05523  -0.1528  0.1041  0.7232  -4.5781   0.0000   0.3009
   9.800   2.0756   0.06209   0.05649  -0.1512  0.1012  0.7247  -4.6506   0.0000   0.2994
  10.000   2.0824   0.06347   0.05789  -0.1494  0.0986  0.7260  -4.7266   0.0000   0.2978
  10.200   2.0903   0.06480   0.05924  -0.1479  0.0961  0.7273  -4.8073   0.0000   0.2964
  10.400   2.0967   0.06628   0.06074  -0.1462  0.0932  0.7285  -4.8841   0.0000   0.2949
  10.600   2.0982   0.06774   0.06223  -0.1440  0.0908  0.7299  -4.9467   0.0000   0.2933
  10.800   2.1008   0.06911   0.06364  -0.1419  0.0884  0.7313  -5.0139   0.0000   0.2918
  11.000   2.1014   0.07076   0.06532  -0.1398  0.0855  0.7325  -5.0766   0.0000   0.2903
  11.200   2.1016   0.07251   0.06710  -0.1378  0.0830  0.7338  -5.1383   0.0000   0.2888
  11.400   2.1024   0.07427   0.06890  -0.1359  0.0804  0.7350  -5.2018   0.0000   0.2874
  11.600   2.1012   0.07630   0.07096  -0.1341  0.0778  0.7360  -5.2596   0.0000   0.2860
  11.800   2.1017   0.07822   0.07293  -0.1325  0.0757  0.7372  -5.3221   0.0000   0.2848
  12.000   2.1019   0.08025   0.07499  -0.1311  0.0734  0.7384  -5.3835   0.0000   0.2835
  12.200   2.0999   0.08260   0.07739  -0.1297  0.0712  0.7396  -5.4384   0.0000   0.2824
  12.400   2.0996   0.08487   0.07970  -0.1286  0.0693  0.7410  -5.4982   0.0000   0.2813
  12.600   2.0994   0.08719   0.08206  -0.1277  0.0672  0.7423  -5.5582   0.0000   0.2803
  12.800   2.0973   0.08979   0.08471  -0.1269  0.0652  0.7435  -5.6128   0.0000   0.2794
  13.000   2.0960   0.09238   0.08735  -0.1262  0.0636  0.7447  -5.6707   0.0000   0.2786
  13.200   2.0946   0.09502   0.09004  -0.1258  0.0618  0.7457  -5.7282   0.0000   0.2778
  13.400   2.0914   0.09790   0.09297  -0.1255  0.0599  0.7465  -5.7786   0.0000   0.2772
  13.600   2.0874   0.10074   0.09586  -0.1253  0.0583  0.7473  -5.8259   0.0000   0.2766
  13.800   2.0826   0.10328   0.09846  -0.1249  0.0568  0.7481  -5.8695   0.0000   0.2759
  14.000   2.0760   0.10609   0.10133  -0.1246  0.0553  0.7488  -5.9057   0.0000   0.2754
  14.200   2.0677   0.10914   0.10444  -0.1246  0.0539  0.7496  -5.9350   0.0000   0.2750
  14.400   2.0609   0.11200   0.10738  -0.1248  0.0528  0.7504  -5.9688   0.0000   0.2746
  14.600   2.0541   0.11489   0.11034  -0.1250  0.0516  0.7512  -6.0017   0.0000   0.2743
  14.800   2.0463   0.11796   0.11347  -0.1255  0.0504  0.7520  -6.0298   0.0000   0.2741
  15.000   2.0377   0.12119   0.11677  -0.1263  0.0493  0.7528  -6.0557   0.0000   0.2741
  15.200   2.0297   0.12437   0.12001  -0.1272  0.0484  0.7536  -6.0843   0.0000   0.2741
  15.400   2.0233   0.12739   0.12310  -0.1281  0.0474  0.7544  -6.1179   0.0000   0.2741
  15.600   2.0154   0.13069   0.12647  -0.1294  0.0463  0.7552  -6.1444   0.0000   0.2743
  15.800   2.0063   0.13425   0.13010  -0.1310  0.0453  0.7560  -6.1640   0.0000   0.2747
  16.000   1.9963   0.13796   0.13387  -0.1329  0.0443  0.7567  -6.1784   0.0000   0.2752
  16.200   1.9889   0.14134   0.13732  -0.1346  0.0434  0.7575  -6.2027   0.0000   0.2756
  16.400   1.9816   0.14473   0.14078  -0.1365  0.0424  0.7584  -6.2262   0.0000   0.2761
  16.600   1.9738   0.14824   0.14435  -0.1386  0.0414  0.7592  -6.2461   0.0000   0.2767
  16.800   1.9641   0.15207   0.14825  -0.1411  0.0404  0.7600  -6.2556   0.0000   0.2775
  17.000   1.9556   0.15580   0.15204  -0.1436  0.0396  0.7609  -6.2685   0.0000   0.2784
  17.200   1.9493   0.15924   0.15555  -0.1460  0.0388  0.7619  -6.2910   0.0000   0.2791
  17.400   1.9434   0.16266   0.15903  -0.1485  0.0379  0.7629  -6.3140   0.0000   0.2799
  17.600   1.9351   0.16648   0.16290  -0.1515  0.0370  0.7638  -6.3239   0.0000   0.2809
  17.800   1.9275   0.17020   0.16668  -0.1544  0.0362  0.7646  -6.3356   0.0000   0.2820
  18.000   1.9217   0.17338   0.16991  -0.1568  0.0355  0.7654  -6.3564   0.0000   0.2827
  18.200   1.9136   0.17657   0.17317  -0.1592  0.0348  0.7660  -6.3657   0.0000   0.2836
  18.400   1.9069   0.17949   0.17614  -0.1614  0.0340  0.7667  -6.3822   0.0000   0.2842
  18.600   1.8980   0.18284   0.17955  -0.1640  0.0333  0.7672  -6.3845   0.0000   0.2852
  18.800   1.8910   0.18585   0.18260  -0.1664  0.0326  0.7678  -6.3968   0.0000   0.2861
  19.000   1.8838   0.18892   0.18573  -0.1690  0.0320  0.7684  -6.4061   0.0000   0.2870
  19.200   1.8793   0.19153   0.18839  -0.1711  0.0314  0.7690  -6.4296   0.0000   0.2875
  19.400   1.8741   0.19425   0.19116  -0.1733  0.0307  0.7696  -6.4488   0.0000   0.2882
  19.600   1.8675   0.19722   0.19418  -0.1759  0.0301  0.7702  -6.4583   0.0000   0.2892
  19.800   1.8628   0.19987   0.19686  -0.1782  0.0294  0.7709  -6.4783   0.0000   0.2899
  20.000   1.8558   0.20301   0.20005  -0.1812  0.0289  0.7716  -6.4819   0.0000   0.2910
  20.200   1.8539   0.20526   0.20234  -0.1832  0.0283  0.7725  -6.5164   0.0000   0.2914
  20.400   1.8508   0.20776   0.20489  -0.1855  0.0277  0.7734  -6.5459   0.0000   0.2920
  20.600   1.8462   0.21060   0.20777  -0.1883  0.0270  0.7742  -6.5644   0.0000   0.2930
  20.800   1.8432   0.21315   0.21035  -0.1908  0.0263  0.7750  -6.5935   0.0000   0.2937
  21.000   1.8380   0.21617   0.21341  -0.1939  0.0258  0.7759  -6.6056   0.0000   0.2948
  21.200   1.8369   0.21849   0.21577  -0.1962  0.0252  0.7767  -6.6444   0.0000   0.2953
  21.400   1.8362   0.22077   0.21809  -0.1986  0.0247  0.7776  -6.6852   0.0000   0.2958
  21.600   1.8331   0.22354   0.22090  -0.2015  0.0241  0.7785  -6.7076   0.0000   0.2968
  21.800   1.8313   0.22611   0.22350  -0.2043  0.0236  0.7794  -6.7378   0.0000   0.2976
  22.000   1.8298   0.22865   0.22606  -0.2071  0.0230  0.7803  -6.7699   0.0000   0.2983
  22.200   1.8276   0.23136   0.22881  -0.2102  0.0226  0.7811  -6.7948   0.0000   0.2992
  22.400   1.8278   0.23364   0.23113  -0.2128  0.0221  0.7818  -6.8366   0.0000   0.2998
  22.600   1.8268   0.23571   0.23322  -0.2150  0.0217  0.7825  -6.8744   0.0000   0.3002
  22.800   1.8229   0.23808   0.23564  -0.2176  0.0212  0.7830  -6.8911   0.0000   0.3010
  23.000   1.8193   0.24036   0.23795  -0.2201  0.0208  0.7836  -6.9098   0.0000   0.3018
  23.200   1.8164   0.24247   0.24008  -0.2223  0.0204  0.7841  -6.9335   0.0000   0.3023
  23.400   1.8129   0.24469   0.24234  -0.2248  0.0200  0.7847  -6.9513   0.0000   0.3031
  23.600   1.8107   0.24666   0.24436  -0.2270  0.0196  0.7852  -6.9787   0.0000   0.3036
  23.800   1.8092   0.24848   0.24621  -0.2290  0.0192  0.7858  -7.0124   0.0000   0.3039
  24.000   1.8073   0.25044   0.24820  -0.2313  0.0187  0.7863  -7.0412   0.0000   0.3044
  24.200   1.8031   0.25293   0.25073  -0.2342  0.0183  0.7868  -7.0470   0.0000   0.3054
  24.400   1.8006   0.25508   0.25289  -0.2368  0.0178  0.7874  -7.0673   0.0000   0.3061
  24.600   1.7994   0.25693   0.25477  -0.2390  0.0175  0.7879  -7.0995   0.0000   0.3065
  24.800   1.7970   0.25909   0.25698  -0.2416  0.0171  0.7885  -7.1175   0.0000   0.3072
  25.000   1.7958   0.26097   0.25888  -0.2439  0.0168  0.7891  -7.1480   0.0000   0.3077


