xflr5 v6.47

 Calculated polar for: NACA24018_theta30_Ku4.5_Kl0.5_d0.24_delta7.31

 1 1 Reynolds number fixed          Mach number fixed         

 xtrf =   1.000 (top)        1.000 (bottom)
 Mach =   0.000     Re =     1.000 e 6     Ncrit =   5.000

  alpha     CL        CD       CDp       Cm    Top Xtr Bot Xtr   Cpmin    Chinge    XCp    
 ------- -------- --------- --------- -------- ------- ------- -------- --------- ---------
 -14.800  -0.7392   0.03811   0.03341  -0.1029  0.8686  0.0359  -5.4763   0.0000   0.0852
 -14.600  -0.7156   0.03781   0.03309  -0.1040  0.8678  0.0364  -5.3321   0.0000   0.0789
 -14.400  -0.6893   0.03746   0.03274  -0.1058  0.8672  0.0371  -5.1814   0.0000   0.0706
 -14.200  -0.6624   0.03719   0.03248  -0.1075  0.8667  0.0378  -5.0289   0.0000   0.0616
 -14.000  -0.6350   0.03697   0.03226  -0.1091  0.8662  0.0385  -4.8792   0.0000   0.0517
 -13.800  -0.6065   0.03678   0.03206  -0.1109  0.8657  0.0392  -4.7308   0.0000   0.0403
 -13.600  -0.5771   0.03662   0.03188  -0.1127  0.8653  0.0398  -4.5815   0.0000   0.0274
 -13.400  -0.5471   0.03648   0.03173  -0.1146  0.8649  0.0405  -4.4317   0.0000   0.0127
 -13.200  -0.5147   0.03632   0.03158  -0.1170  0.8645  0.0414  -4.2768   0.0000  -0.0059
 -13.000  -0.4818   0.03621   0.03147  -0.1193  0.8642  0.0424  -4.1215   0.0000  -0.0272
 -12.800  -0.4601   0.03591   0.03118  -0.1199  0.8598  0.0432  -4.0011   0.0000  -0.0405
 -12.600  -0.4299   0.03575   0.03102  -0.1216  0.8584  0.0442  -3.8574   0.0000  -0.0640
 -12.400  -0.3973   0.03559   0.03084  -0.1238  0.8573  0.0451  -3.7090   0.0000  -0.0940
 -12.200  -0.3626   0.03543   0.03070  -0.1263  0.8565  0.0462  -3.5568   0.0000  -0.1326
 -12.000  -0.3286   0.03531   0.03059  -0.1286  0.8560  0.0474  -3.4128   0.0000  -0.1780
 -11.800  -0.2949   0.03521   0.03049  -0.1309  0.8555  0.0487  -3.2736   0.0000  -0.2331
 -11.600  -0.2603   0.03511   0.03039  -0.1333  0.8552  0.0500  -3.1342   0.0000  -0.3049
 -11.400  -0.2243   0.03501   0.03030  -0.1359  0.8548  0.0517  -2.9930   0.0000  -0.4039
 -11.200  -0.2059   0.03509   0.03040  -0.1357  0.8511  0.0529  -2.8981   0.0000  -0.4597
 -11.000  -0.1759   0.03502   0.03033  -0.1373  0.8494  0.0542  -2.7772   0.0000  -0.5878
 -10.800  -0.1388   0.03477   0.03010  -0.1400  0.8479  0.0560  -2.6454   0.0000  -0.8288
 -10.600  -0.0986   0.03438   0.02972  -0.1431  0.8467  0.0583  -2.5087   0.0000  -1.2954
 -10.400  -0.0590   0.03402   0.02936  -0.1462  0.8459  0.0605  -2.3759   0.0000  -2.3807
  -7.600   0.4216   0.03220   0.02736  -0.1766  0.6913  0.1237  -0.9795   0.0000   0.6799
  -7.400   0.4408   0.03286   0.02783  -0.1764  0.6457  0.1320  -0.9236   0.0000   0.6598
  -7.200   0.4630   0.03347   0.02832  -0.1767  0.6107  0.1419  -0.8643   0.0000   0.6401
  -7.000   0.4882   0.03404   0.02878  -0.1774  0.5804  0.1547  -0.8410   0.0000   0.6209
  -6.800   0.5170   0.03457   0.02925  -0.1788  0.5541  0.1722  -0.8689   0.0000   0.6024
  -6.600   0.5503   0.03517   0.02980  -0.1810  0.5275  0.1976  -0.9014   0.0000   0.5845
  -6.400   0.5891   0.03587   0.03050  -0.1843  0.5037  0.2352  -0.9380   0.0000   0.5674
  -6.200   0.6468   0.03707   0.03179  -0.1910  0.4795  0.3113  -0.9883   0.0000   0.5490
  -6.000   0.6990   0.03823   0.03300  -0.1966  0.4554  0.3735  -1.0354   0.0000   0.5342
  -5.800   0.7340   0.03891   0.03363  -0.1990  0.4366  0.3991  -1.0706   0.0000   0.5234
  -5.600   0.7661   0.03949   0.03417  -0.2008  0.4216  0.4178  -1.1040   0.0000   0.5139
  -5.400   0.7976   0.04006   0.03469  -0.2025  0.4079  0.4342  -1.1385   0.0000   0.5051
  -5.200   0.8269   0.04056   0.03516  -0.2037  0.3961  0.4478  -1.1730   0.0000   0.4972
  -5.000   0.8539   0.04099   0.03553  -0.2046  0.3843  0.4586  -1.2060   0.0000   0.4899
  -4.800   0.8810   0.04143   0.03592  -0.2054  0.3728  0.4677  -1.2393   0.0000   0.4831
  -4.600   0.9088   0.04190   0.03635  -0.2064  0.3633  0.4809  -1.2734   0.0000   0.4766
  -4.400   0.9409   0.04254   0.03697  -0.2081  0.3533  0.4977  -1.3113   0.0000   0.4703
  -4.200   0.9713   0.04312   0.03754  -0.2095  0.3451  0.5113  -1.3481   0.0000   0.4644
  -4.000   0.9960   0.04350   0.03787  -0.2099  0.3375  0.5183  -1.3803   0.0000   0.4591
  -3.800   1.0194   0.04384   0.03818  -0.2101  0.3313  0.5226  -1.4120   0.0000   0.4540
  -3.600   1.0428   0.04419   0.03852  -0.2102  0.3264  0.5271  -1.4449   0.0000   0.4492
  -3.400   1.0656   0.04451   0.03882  -0.2102  0.3211  0.5312  -1.4775   0.0000   0.4446
  -3.200   1.0881   0.04484   0.03910  -0.2102  0.3155  0.5352  -1.5100   0.0000   0.4402
  -3.000   1.1107   0.04517   0.03940  -0.2102  0.3111  0.5389  -1.5428   0.0000   0.4359
  -2.800   1.1332   0.04550   0.03973  -0.2102  0.3062  0.5429  -1.5756   0.0000   0.4318
  -2.600   1.1553   0.04582   0.04003  -0.2101  0.3012  0.5468  -1.6090   0.0000   0.4279
  -2.400   1.1772   0.04615   0.04033  -0.2100  0.2968  0.5505  -1.6438   0.0000   0.4241
  -2.200   1.1993   0.04648   0.04065  -0.2099  0.2935  0.5541  -1.6799   0.0000   0.4204
  -2.000   1.2213   0.04681   0.04096  -0.2098  0.2893  0.5572  -1.7159   0.0000   0.4168
  -1.800   1.2424   0.04713   0.04126  -0.2095  0.2849  0.5607  -1.7514   0.0000   0.4134
  -1.600   1.2635   0.04746   0.04157  -0.2092  0.2803  0.5647  -1.7871   0.0000   0.4101
  -1.400   1.2853   0.04781   0.04192  -0.2091  0.2773  0.5688  -1.8235   0.0000   0.4068
  -1.200   1.3069   0.04816   0.04226  -0.2089  0.2737  0.5725  -1.8600   0.0000   0.4037
  -1.000   1.3283   0.04852   0.04260  -0.2087  0.2700  0.5757  -1.8979   0.0000   0.4007
  -0.800   1.3485   0.04884   0.04291  -0.2083  0.2665  0.5788  -1.9350   0.0000   0.3977
  -0.600   1.3685   0.04917   0.04323  -0.2078  0.2632  0.5825  -1.9720   0.0000   0.3948
  -0.400   1.3891   0.04950   0.04358  -0.2074  0.2606  0.5863  -2.0098   0.0000   0.3920
  -0.200   1.4098   0.04986   0.04393  -0.2071  0.2573  0.5900  -2.0489   0.0000   0.3893
   0.000   1.4304   0.05023   0.04429  -0.2067  0.2537  0.5932  -2.0888   0.0000   0.3866
   0.200   1.4509   0.05063   0.04466  -0.2064  0.2503  0.5959  -2.1289   0.0000   0.3840
   0.400   1.4693   0.05093   0.04496  -0.2057  0.2472  0.5988  -2.1666   0.0000   0.3814
   0.600   1.4882   0.05124   0.04529  -0.2050  0.2447  0.6020  -2.2057   0.0000   0.3789
   0.800   1.5074   0.05158   0.04564  -0.2044  0.2416  0.6055  -2.2483   0.0000   0.3765
   1.000   1.5269   0.05197   0.04602  -0.2039  0.2384  0.6090  -2.2914   0.0000   0.3741
   1.200   1.5465   0.05238   0.04642  -0.2034  0.2352  0.6121  -2.3350   0.0000   0.3717
   1.400   1.5664   0.05283   0.04685  -0.2029  0.2317  0.6148  -2.3790   0.0000   0.3695
   1.600   1.5839   0.05316   0.04720  -0.2021  0.2290  0.6175  -2.4203   0.0000   0.3672
   1.800   1.6006   0.05350   0.04755  -0.2011  0.2258  0.6205  -2.4610   0.0000   0.3649
   2.000   1.6176   0.05389   0.04794  -0.2001  0.2226  0.6236  -2.5022   0.0000   0.3627
   2.200   1.6350   0.05433   0.04838  -0.1993  0.2196  0.6266  -2.5440   0.0000   0.3605
   2.400   1.6530   0.05480   0.04885  -0.1985  0.2169  0.6294  -2.5867   0.0000   0.3584
   2.600   1.6720   0.05528   0.04934  -0.1980  0.2148  0.6322  -2.6309   0.0000   0.3564
   2.800   1.6911   0.05580   0.04987  -0.1974  0.2123  0.6348  -2.6773   0.0000   0.3544
   3.000   1.7057   0.05613   0.05022  -0.1961  0.2096  0.6373  -2.7211   0.0000   0.3523
   3.200   1.7203   0.05651   0.05060  -0.1948  0.2065  0.6398  -2.7656   0.0000   0.3503
   3.400   1.7352   0.05695   0.05103  -0.1936  0.2030  0.6422  -2.8107   0.0000   0.3482
   3.600   1.7517   0.05737   0.05148  -0.1926  0.2006  0.6448  -2.8597   0.0000   0.3463
   3.800   1.7685   0.05785   0.05197  -0.1917  0.1975  0.6475  -2.9119   0.0000   0.3444
   4.000   1.7857   0.05841   0.05253  -0.1909  0.1943  0.6503  -2.9651   0.0000   0.3425
   4.200   1.8032   0.05905   0.05315  -0.1901  0.1910  0.6528  -3.0191   0.0000   0.3407
   4.400   1.8181   0.05954   0.05366  -0.1889  0.1882  0.6548  -3.0692   0.0000   0.3389
   4.600   1.8311   0.05992   0.05406  -0.1874  0.1856  0.6567  -3.1191   0.0000   0.3370
   4.800   1.8436   0.06040   0.05456  -0.1859  0.1826  0.6586  -3.1696   0.0000   0.3351
   5.000   1.8557   0.06095   0.05512  -0.1843  0.1797  0.6606  -3.2199   0.0000   0.3332
   5.200   1.8680   0.06157   0.05574  -0.1828  0.1766  0.6629  -3.2706   0.0000   0.3314
   5.400   1.8820   0.06216   0.05636  -0.1815  0.1741  0.6653  -3.3251   0.0000   0.3296
   5.600   1.8968   0.06282   0.05703  -0.1804  0.1711  0.6677  -3.3830   0.0000   0.3279
   5.800   1.9119   0.06356   0.05777  -0.1794  0.1679  0.6699  -3.4460   0.0000   0.3262
   6.000   1.9267   0.06439   0.05860  -0.1784  0.1645  0.6718  -3.5117   0.0000   0.3246
   6.200   1.9397   0.06505   0.05928  -0.1770  0.1618  0.6736  -3.5780   0.0000   0.3229
   6.400   1.9491   0.06557   0.05983  -0.1751  0.1588  0.6752  -3.6375   0.0000   0.3211
   6.600   1.9573   0.06625   0.06052  -0.1731  0.1555  0.6769  -3.6967   0.0000   0.3193
   6.800   1.9652   0.06701   0.06129  -0.1711  0.1522  0.6785  -3.7557   0.0000   0.3175
   7.000   1.9750   0.06770   0.06201  -0.1694  0.1496  0.6802  -3.8187   0.0000   0.3158
   7.200   1.9852   0.06844   0.06277  -0.1677  0.1464  0.6819  -3.8831   0.0000   0.3142
   7.400   1.9950   0.06932   0.06365  -0.1661  0.1427  0.6837  -3.9474   0.0000   0.3125
   7.600   2.0046   0.07036   0.06470  -0.1645  0.1395  0.6857  -4.0173   0.0000   0.3109
   7.800   2.0159   0.07140   0.06577  -0.1632  0.1367  0.6878  -4.0931   0.0000   0.3094
   8.000   2.0274   0.07256   0.06694  -0.1620  0.1333  0.6898  -4.1703   0.0000   0.3079
   8.200   2.0388   0.07388   0.06825  -0.1608  0.1299  0.6916  -4.2479   0.0000   0.3064
   8.400   2.0451   0.07472   0.06914  -0.1589  0.1276  0.6927  -4.3122   0.0000   0.3047
   8.600   2.0498   0.07568   0.07014  -0.1567  0.1250  0.6937  -4.3783   0.0000   0.3031
   8.800   2.0538   0.07672   0.07120  -0.1546  0.1220  0.6948  -4.4442   0.0000   0.3015
   9.000   2.0568   0.07786   0.07236  -0.1524  0.1188  0.6959  -4.5076   0.0000   0.2998
   9.200   2.0606   0.07898   0.07352  -0.1504  0.1160  0.6971  -4.5736   0.0000   0.2983
   9.400   2.0637   0.08023   0.07479  -0.1484  0.1125  0.6983  -4.6379   0.0000   0.2967
   9.600   2.0656   0.08171   0.07628  -0.1464  0.1093  0.6995  -4.6993   0.0000   0.2952
   9.800   2.0703   0.08304   0.07766  -0.1447  0.1069  0.7009  -4.7685   0.0000   0.2938
  10.000   2.0744   0.08452   0.07917  -0.1432  0.1042  0.7022  -4.8365   0.0000   0.2924
  10.200   2.0772   0.08622   0.08090  -0.1416  0.1014  0.7035  -4.9011   0.0000   0.2910
  10.400   2.0805   0.08799   0.08270  -0.1402  0.0988  0.7049  -4.9672   0.0000   0.2897
  10.600   2.0847   0.08981   0.08455  -0.1391  0.0959  0.7065  -5.0360   0.0000   0.2885
  10.800   2.0877   0.09196   0.08672  -0.1381  0.0927  0.7082  -5.1018   0.0000   0.2874
  11.000   2.0933   0.09420   0.08899  -0.1375  0.0898  0.7101  -5.1757   0.0000   0.2864
  11.200   2.0925   0.09602   0.09086  -0.1361  0.0871  0.7110  -5.2290   0.0000   0.2852
  11.400   2.0888   0.09797   0.09285  -0.1346  0.0846  0.7117  -5.2781   0.0000   0.2840
  11.600   2.0859   0.09989   0.09482  -0.1333  0.0825  0.7124  -5.3304   0.0000   0.2829
  11.800   2.0832   0.10185   0.09683  -0.1321  0.0803  0.7130  -5.3829   0.0000   0.2818
  12.000   2.0793   0.10400   0.09903  -0.1311  0.0780  0.7137  -5.4312   0.0000   0.2809
  12.200   2.0747   0.10626   0.10134  -0.1302  0.0761  0.7143  -5.4769   0.0000   0.2800
  12.400   2.0720   0.10834   0.10347  -0.1295  0.0743  0.7149  -5.5282   0.0000   0.2792
  12.600   2.0682   0.11060   0.10580  -0.1289  0.0725  0.7156  -5.5754   0.0000   0.2784
  12.800   2.0632   0.11308   0.10832  -0.1286  0.0706  0.7163  -5.6177   0.0000   0.2778
  13.000   2.0583   0.11556   0.11086  -0.1284  0.0690  0.7170  -5.6596   0.0000   0.2772
  13.200   2.0552   0.11785   0.11321  -0.1283  0.0675  0.7179  -5.7075   0.0000   0.2766
  13.400   2.0506   0.12039   0.11581  -0.1285  0.0658  0.7189  -5.7492   0.0000   0.2762
  13.600   2.0446   0.12317   0.11865  -0.1289  0.0642  0.7198  -5.7849   0.0000   0.2759
  13.800   2.0385   0.12604   0.12158  -0.1296  0.0627  0.7208  -5.8191   0.0000   0.2757
  14.000   2.0349   0.12869   0.12430  -0.1303  0.0613  0.7219  -5.8617   0.0000   0.2755
  14.200   2.0302   0.13159   0.12726  -0.1313  0.0596  0.7231  -5.8996   0.0000   0.2755
  14.400   2.0242   0.13482   0.13055  -0.1327  0.0580  0.7242  -5.9307   0.0000   0.2757
  14.600   2.0192   0.13809   0.13387  -0.1344  0.0566  0.7255  -5.9648   0.0000   0.2759
  14.800   2.0168   0.14135   0.13720  -0.1363  0.0549  0.7270  -6.0078   0.0000   0.2762
  15.000   2.0137   0.14507   0.14097  -0.1389  0.0531  0.7286  -6.0460   0.0000   0.2768
  15.200   2.0029   0.14832   0.14429  -0.1405  0.0519  0.7290  -6.0536   0.0000   0.2772
  15.400   1.9940   0.15127   0.14731  -0.1420  0.0508  0.7295  -6.0687   0.0000   0.2775
  15.600   1.9858   0.15411   0.15022  -0.1435  0.0497  0.7300  -6.0856   0.0000   0.2778
  15.800   1.9766   0.15714   0.15331  -0.1452  0.0486  0.7304  -6.0967   0.0000   0.2783
  16.000   1.9661   0.16040   0.15664  -0.1472  0.0475  0.7308  -6.1005   0.0000   0.2790
  16.400   1.9487   0.16644   0.16281  -0.1512  0.0457  0.7317  -6.1209   0.0000   0.2801
  16.600   1.9408   0.16942   0.16585  -0.1532  0.0447  0.7322  -6.1327   0.0000   0.2807
  16.800   1.9324   0.17251   0.16901  -0.1555  0.0436  0.7327  -6.1419   0.0000   0.2815
  17.000   1.9244   0.17554   0.17209  -0.1578  0.0426  0.7331  -6.1540   0.0000   0.2822
  17.200   1.9153   0.17879   0.17539  -0.1603  0.0417  0.7336  -6.1586   0.0000   0.2831
  17.400   1.9101   0.18138   0.17803  -0.1623  0.0407  0.7341  -6.1837   0.0000   0.2836
  17.600   1.9029   0.18435   0.18107  -0.1648  0.0398  0.7347  -6.1958   0.0000   0.2844
  17.800   1.8970   0.18709   0.18386  -0.1670  0.0388  0.7352  -6.2154   0.0000   0.2851
  18.000   1.8887   0.19030   0.18711  -0.1699  0.0379  0.7358  -6.2203   0.0000   0.2861
  18.200   1.8845   0.19281   0.18966  -0.1720  0.0371  0.7364  -6.2483   0.0000   0.2867
  18.400   1.8789   0.19561   0.19252  -0.1745  0.0363  0.7371  -6.2666   0.0000   0.2875
  18.600   1.8752   0.19810   0.19506  -0.1768  0.0355  0.7379  -6.2951   0.0000   0.2881
  18.800   1.8698   0.20094   0.19794  -0.1795  0.0347  0.7388  -6.3123   0.0000   0.2889
  19.000   1.8649   0.20378   0.20082  -0.1823  0.0339  0.7398  -6.3306   0.0000   0.2898
  19.200   1.8636   0.20621   0.20329  -0.1847  0.0332  0.7411  -6.3688   0.0000   0.2903
  19.400   1.8617   0.20906   0.20619  -0.1877  0.0325  0.7427  -6.3999   0.0000   0.2912
  19.600   1.8660   0.21215   0.20931  -0.1915  0.0315  0.7455  -6.4595   0.0000   0.2921
  19.800   1.8640   0.21499   0.21219  -0.1946  0.0307  0.7466  -6.4885   0.0000   0.2930
  20.000   1.8578   0.21762   0.21485  -0.1972  0.0300  0.7469  -6.4970   0.0000   0.2939
  20.200   1.8554   0.21950   0.21678  -0.1990  0.0294  0.7472  -6.5312   0.0000   0.2941
  20.400   1.8517   0.22165   0.21897  -0.2011  0.0288  0.7476  -6.5554   0.0000   0.2947
  20.600   1.8475   0.22392   0.22128  -0.2034  0.0281  0.7479  -6.5745   0.0000   0.2953
  20.800   1.8439   0.22606   0.22344  -0.2056  0.0274  0.7483  -6.5981   0.0000   0.2959
  21.000   1.8388   0.22853   0.22594  -0.2083  0.0267  0.7486  -6.6086   0.0000   0.2967
  21.200   1.8359   0.23056   0.22802  -0.2104  0.0262  0.7490  -6.6347   0.0000   0.2972
  21.400   1.8338   0.23240   0.22990  -0.2123  0.0255  0.7494  -6.6667   0.0000   0.2975
  21.600   1.8313   0.23430   0.23183  -0.2144  0.0249  0.7498  -6.6951   0.0000   0.2979
  21.800   1.8266   0.23664   0.23420  -0.2170  0.0243  0.7503  -6.7054   0.0000   0.2988
  22.000   1.8232   0.23871   0.23630  -0.2193  0.0238  0.7507  -6.7251   0.0000   0.2994
  22.200   1.8211   0.24052   0.23814  -0.2213  0.0234  0.7512  -6.7544   0.0000   0.2997
  22.400   1.8185   0.24246   0.24013  -0.2235  0.0229  0.7517  -6.7782   0.0000   0.3002
  22.600   1.8163   0.24434   0.24204  -0.2257  0.0224  0.7522  -6.8050   0.0000   0.3006
  22.800   1.8148   0.24613   0.24386  -0.2278  0.0219  0.7528  -6.8358   0.0000   0.3010
  23.000   1.8128   0.24805   0.24581  -0.2301  0.0214  0.7533  -6.8620   0.0000   0.3015
  23.200   1.8090   0.25041   0.24820  -0.2330  0.0209  0.7539  -6.8695   0.0000   0.3024
  23.400   1.8077   0.25224   0.25006  -0.2353  0.0205  0.7546  -6.9009   0.0000   0.3028
  23.600   1.8078   0.25386   0.25172  -0.2373  0.0201  0.7553  -6.9458   0.0000   0.3030
  23.800   1.8064   0.25581   0.25370  -0.2398  0.0196  0.7561  -6.9770   0.0000   0.3035
  24.000   1.8048   0.25788   0.25581  -0.2425  0.0191  0.7570  -7.0038   0.0000   0.3041
  24.200   1.8043   0.25985   0.25779  -0.2451  0.0187  0.7581  -7.0387   0.0000   0.3046
  24.400   1.8042   0.26203   0.26000  -0.2481  0.0182  0.7595  -7.0714   0.0000   0.3053
  24.600   1.8107   0.26508   0.26308  -0.2529  0.0177  0.7634  -7.1321   0.0000   0.3063
  24.800   1.8090   0.26660   0.26463  -0.2548  0.0174  0.7638  -7.1643   0.0000   0.3065
  25.000   1.8075   0.26808   0.26614  -0.2567  0.0170  0.7641  -7.1978   0.0000   0.3067


