xflr5 v6.47

 Calculated polar for: NACA24018_theta30_Ku4.5_Kl0.5_d0.24_delta7.31

 1 1 Reynolds number fixed          Mach number fixed         

 xtrf =   1.000 (top)        1.000 (bottom)
 Mach =   0.000     Re =     0.200 e 6     Ncrit =   5.000

  alpha     CL        CD       CDp       Cm    Top Xtr Bot Xtr   Cpmin    Chinge    XCp    
 ------- -------- --------- --------- -------- ------- ------- -------- --------- ---------
 -15.000  -0.7220   0.06079   0.05490  -0.0856  0.9277  0.0507  -5.0544   0.0000   0.1055
 -14.800  -0.7381   0.05879   0.05288  -0.0824  0.9271  0.0508  -5.0611   0.0000   0.1133
 -14.600  -0.7452   0.05711   0.05117  -0.0805  0.9257  0.0511  -5.0380   0.0000   0.1176
 -14.400  -0.7431   0.05578   0.04978  -0.0800  0.9239  0.0516  -4.9857   0.0000   0.1184
 -14.200  -0.7357   0.05465   0.04857  -0.0803  0.9226  0.0523  -4.9179   0.0000   0.1172
 -14.000  -0.7242   0.05367   0.04748  -0.0811  0.9215  0.0530  -4.8395   0.0000   0.1146
 -13.800  -0.7089   0.05291   0.04659  -0.0823  0.9208  0.0539  -4.7523   0.0000   0.1105
 -13.600  -0.6991   0.05187   0.04545  -0.0824  0.9201  0.0546  -4.6791   0.0000   0.1090
 -13.400  -0.6920   0.05068   0.04428  -0.0816  0.9179  0.0550  -4.6024   0.0000   0.1093
 -13.200  -0.6742   0.05006   0.04367  -0.0824  0.9157  0.0557  -4.4935   0.0000   0.1050
 -13.000  -0.6523   0.04965   0.04324  -0.0838  0.9142  0.0567  -4.3789   0.0000   0.0986
 -12.800  -0.6280   0.04944   0.04296  -0.0855  0.9133  0.0579  -4.2614   0.0000   0.0907
 -12.600  -0.6167   0.04841   0.04187  -0.0852  0.9107  0.0589  -4.1850   0.0000   0.0889
 -12.400  -0.5931   0.04788   0.04126  -0.0866  0.9074  0.0601  -4.0732   0.0000   0.0809
 -12.000  -0.5448   0.04700   0.04040  -0.0892  0.8999  0.0623  -3.8341   0.0000   0.0627
 -11.800  -0.5165   0.04644   0.03978  -0.0910  0.8942  0.0638  -3.7081   0.0000   0.0499
 -11.600  -0.4887   0.04609   0.03932  -0.0925  0.8910  0.0656  -3.5884   0.0000   0.0361
 -11.400  -0.4623   0.04565   0.03893  -0.0940  0.8868  0.0669  -3.4648   0.0000   0.0216
 -11.200  -0.4358   0.04531   0.03859  -0.0954  0.8834  0.0685  -3.3443   0.0000   0.0053
 -10.800  -0.3835   0.04469   0.03789  -0.0979  0.8770  0.0721  -3.1265   0.0000  -0.0325
 -10.600  -0.3544   0.04447   0.03771  -0.0997  0.8745  0.0740  -3.0074   0.0000  -0.0596
 -10.400  -0.3236   0.04437   0.03760  -0.1016  0.8729  0.0764  -2.8876   0.0000  -0.0938
 -10.200  -0.3002   0.04398   0.03717  -0.1023  0.8681  0.0787  -2.7893   0.0000  -0.1218
 -10.000  -0.2699   0.04381   0.03705  -0.1042  0.8658  0.0810  -2.6714   0.0000  -0.1693
  -9.800  -0.2384   0.04373   0.03696  -0.1062  0.8642  0.0840  -2.5588   0.0000  -0.2315
  -9.600  -0.2129   0.04342   0.03665  -0.1072  0.8597  0.0868  -2.4628   0.0000  -0.2925
  -9.400  -0.1817   0.04326   0.03653  -0.1092  0.8570  0.0899  -2.3533   0.0000  -0.3946
  -9.200  -0.1494   0.04316   0.03640  -0.1111  0.8552  0.0938  -2.2448   0.0000  -0.5449
  -9.000  -0.1205   0.04291   0.03621  -0.1128  0.8508  0.0973  -2.1432   0.0000  -0.7460
  -8.800  -0.0894   0.04274   0.03604  -0.1146  0.8476  0.1018  -2.0393   0.0000  -1.1091
  -8.600  -0.0524   0.04261   0.03596  -0.1174  0.8457  0.1068  -1.9277   0.0000  -2.1154
  -8.400  -0.0259   0.04230   0.03565  -0.1185  0.8394  0.1120  -1.8405   0.0000  -4.5716
  -8.200   0.0118   0.04214   0.03554  -0.1214  0.8366  0.1186  -1.7324   0.0000  11.0124
  -8.000   0.0390   0.04197   0.03541  -0.1227  0.8294  0.1251  -1.6460   0.0000   3.5372
  -7.800   0.0743   0.04189   0.03536  -0.1251  0.8259  0.1339  -1.5499   0.0000   2.0059
  -7.600   0.1011   0.04197   0.03553  -0.1266  0.8162  0.1429  -1.4705   0.0000   1.5514
  -7.200   0.1606   0.04256   0.03629  -0.1302  0.7956  0.1691  -1.3046   0.0000   1.0883
  -7.000   0.2001   0.04291   0.03675  -0.1336  0.7888  0.1925  -1.2073   0.0000   0.9380
  -6.800   0.2522   0.04360   0.03767  -0.1394  0.7827  0.2397  -1.0939   0.0000   0.8173
  -6.600   0.3322   0.04516   0.03977  -0.1503  0.7782  0.3662  -0.9480   0.0000   0.7123
  -6.400   0.3725   0.04567   0.04044  -0.1534  0.7696  0.4172  -0.8631   0.0000   0.6696
  -6.200   0.4084   0.04576   0.04058  -0.1555  0.7623  0.4472  -0.8065   0.0000   0.6369
  -6.000   0.4414   0.04568   0.04053  -0.1569  0.7532  0.4689  -0.8389   0.0000   0.6106
  -5.800   0.4755   0.04544   0.04028  -0.1584  0.7436  0.4868  -0.8727   0.0000   0.5872
  -5.600   0.5142   0.04494   0.03973  -0.1606  0.7338  0.5029  -0.9104   0.0000   0.5654
  -5.400   0.5520   0.04427   0.03899  -0.1626  0.7211  0.5165  -0.9478   0.0000   0.5468
  -5.200   0.5830   0.04308   0.03775  -0.1632  0.7082  0.5262  -0.9809   0.0000   0.5314
  -5.000   0.6296   0.04191   0.03644  -0.1665  0.6904  0.5410  -1.0260   0.0000   0.5153
  -4.800   0.6753   0.04057   0.03493  -0.1695  0.6679  0.5585  -1.0722   0.0000   0.5014
  -4.600   0.6891   0.03911   0.03337  -0.1671  0.6474  0.5644  -1.0942   0.0000   0.4925
  -4.400   0.7208   0.03841   0.03247  -0.1682  0.6216  0.5716  -1.1302   0.0000   0.4829
  -4.200   0.7594   0.03848   0.03231  -0.1709  0.5932  0.5777  -1.1719   0.0000   0.4742
  -4.000   0.7705   0.03821   0.03191  -0.1687  0.5725  0.5797  -1.1921   0.0000   0.4677
  -3.800   0.7822   0.03813   0.03172  -0.1666  0.5531  0.5818  -1.2125   0.0000   0.4614
  -3.600   0.7953   0.03817   0.03166  -0.1649  0.5349  0.5843  -1.2341   0.0000   0.4554
  -3.400   0.8121   0.03837   0.03175  -0.1639  0.5174  0.5877  -1.2587   0.0000   0.4495
  -3.200   0.8430   0.03900   0.03222  -0.1656  0.4979  0.5934  -1.2946   0.0000   0.4437
  -3.000   0.8662   0.03945   0.03255  -0.1658  0.4811  0.5971  -1.3251   0.0000   0.4384
  -2.800   0.8756   0.03949   0.03254  -0.1634  0.4682  0.5985  -1.3449   0.0000   0.4333
  -2.600   0.8857   0.03956   0.03255  -0.1612  0.4567  0.6002  -1.3655   0.0000   0.4283
  -2.400   0.8970   0.03969   0.03262  -0.1593  0.4457  0.6023  -1.3870   0.0000   0.4235
  -2.200   0.9115   0.03988   0.03276  -0.1579  0.4351  0.6049  -1.4113   0.0000   0.4189
  -2.000   0.9300   0.04024   0.03303  -0.1573  0.4245  0.6083  -1.4391   0.0000   0.4144
  -1.800   0.9724   0.04125   0.03393  -0.1612  0.4109  0.6154  -1.4885   0.0000   0.4107
  -1.600   0.9811   0.04129   0.03394  -0.1587  0.4034  0.6166  -1.5093   0.0000   0.4064
  -1.400   0.9908   0.04135   0.03399  -0.1565  0.3958  0.6180  -1.5308   0.0000   0.4023
  -1.200   1.0011   0.04148   0.03407  -0.1543  0.3888  0.6196  -1.5540   0.0000   0.3983
  -1.000   1.0136   0.04162   0.03420  -0.1526  0.3821  0.6215  -1.5795   0.0000   0.3944
  -0.800   1.0279   0.04185   0.03441  -0.1512  0.3751  0.6237  -1.6067   0.0000   0.3906
  -0.600   1.0448   0.04220   0.03469  -0.1504  0.3687  0.6265  -1.6366   0.0000   0.3872
  -0.200   1.1003   0.04341   0.03583  -0.1527  0.3551  0.6354  -1.7171   0.0000   0.3813
   0.000   1.1096   0.04353   0.03592  -0.1504  0.3505  0.6366  -1.7407   0.0000   0.3779
   0.200   1.1206   0.04364   0.03606  -0.1484  0.3458  0.6380  -1.7665   0.0000   0.3745
   0.400   1.1323   0.04382   0.03625  -0.1466  0.3409  0.6395  -1.7931   0.0000   0.3712
   0.600   1.1450   0.04408   0.03649  -0.1450  0.3362  0.6413  -1.8208   0.0000   0.3681
   0.800   1.1595   0.04441   0.03677  -0.1438  0.3320  0.6434  -1.8504   0.0000   0.3652
   1.000   1.1779   0.04476   0.03716  -0.1432  0.3275  0.6462  -1.8847   0.0000   0.3625
   1.200   1.2195   0.04591   0.03828  -0.1469  0.3211  0.6538  -1.9446   0.0000   0.3610
   1.400   1.2281   0.04610   0.03845  -0.1447  0.3174  0.6547  -1.9699   0.0000   0.3580
   1.600   1.2376   0.04631   0.03865  -0.1426  0.3140  0.6558  -1.9961   0.0000   0.3552
   1.800   1.2489   0.04652   0.03890  -0.1407  0.3103  0.6571  -2.0240   0.0000   0.3524
   2.000   1.2607   0.04678   0.03921  -0.1391  0.3065  0.6585  -2.0537   0.0000   0.3497
   2.200   1.2728   0.04711   0.03954  -0.1375  0.3028  0.6602  -2.0858   0.0000   0.3471
   2.400   1.2858   0.04751   0.03992  -0.1361  0.2993  0.6623  -2.1191   0.0000   0.3446
   2.600   1.3015   0.04796   0.04036  -0.1352  0.2960  0.6649  -2.1556   0.0000   0.3423
   2.800   1.3240   0.04859   0.04105  -0.1354  0.2920  0.6687  -2.2000   0.0000   0.3405
   3.000   1.3535   0.04955   0.04202  -0.1370  0.2875  0.6733  -2.2532   0.0000   0.3391
   3.200   1.3624   0.04987   0.04235  -0.1349  0.2843  0.6743  -2.2821   0.0000   0.3366
   3.400   1.3712   0.05022   0.04270  -0.1329  0.2815  0.6754  -2.3111   0.0000   0.3341
   3.600   1.3810   0.05057   0.04307  -0.1310  0.2787  0.6768  -2.3410   0.0000   0.3318
   3.800   1.3917   0.05095   0.04353  -0.1293  0.2755  0.6784  -2.3722   0.0000   0.3295
   4.000   1.4033   0.05142   0.04405  -0.1278  0.2723  0.6803  -2.4060   0.0000   0.3274
   4.200   1.4160   0.05199   0.04465  -0.1265  0.2690  0.6825  -2.4416   0.0000   0.3253
   4.400   1.4309   0.05269   0.04535  -0.1257  0.2659  0.6850  -2.4816   0.0000   0.3235
   4.600   1.4502   0.05353   0.04617  -0.1257  0.2628  0.6881  -2.5296   0.0000   0.3219
   4.800   1.4758   0.05460   0.04733  -0.1267  0.2589  0.6921  -2.5863   0.0000   0.3207
   5.000   1.4830   0.05504   0.04784  -0.1246  0.2560  0.6931  -2.6180   0.0000   0.3185
   5.200   1.4898   0.05558   0.04842  -0.1225  0.2531  0.6943  -2.6503   0.0000   0.3164
   5.400   1.4971   0.05618   0.04904  -0.1205  0.2503  0.6956  -2.6854   0.0000   0.3143
   5.600   1.5054   0.05681   0.04966  -0.1187  0.2478  0.6971  -2.7224   0.0000   0.3124
   5.800   1.5158   0.05747   0.05041  -0.1173  0.2449  0.6988  -2.7618   0.0000   0.3105
   6.000   1.5269   0.05821   0.05123  -0.1160  0.2418  0.7006  -2.8027   0.0000   0.3088
   6.200   1.5381   0.05907   0.05215  -0.1148  0.2389  0.7027  -2.8439   0.0000   0.3071
   6.400   1.5508   0.06006   0.05318  -0.1140  0.2361  0.7052  -2.8909   0.0000   0.3055
   6.600   1.5683   0.06131   0.05443  -0.1141  0.2331  0.7086  -2.9467   0.0000   0.3043
   6.800   1.5829   0.06240   0.05558  -0.1136  0.2302  0.7109  -2.9977   0.0000   0.3029
   7.000   1.5883   0.06316   0.05644  -0.1116  0.2273  0.7119  -3.0332   0.0000   0.3011
   7.200   1.5936   0.06402   0.05738  -0.1098  0.2245  0.7130  -3.0703   0.0000   0.2993
   7.400   1.5993   0.06496   0.05837  -0.1080  0.2217  0.7142  -3.1085   0.0000   0.2976
   7.600   1.6047   0.06597   0.05940  -0.1064  0.2192  0.7155  -3.1493   0.0000   0.2959
   7.800   1.6105   0.06698   0.06044  -0.1048  0.2168  0.7170  -3.1913   0.0000   0.2942
   8.000   1.6175   0.06804   0.06162  -0.1034  0.2139  0.7187  -3.2367   0.0000   0.2927
   8.200   1.6246   0.06926   0.06293  -0.1022  0.2109  0.7207  -3.2830   0.0000   0.2913
   8.400   1.6325   0.07062   0.06435  -0.1013  0.2080  0.7228  -3.3342   0.0000   0.2899
   8.600   1.6415   0.07216   0.06593  -0.1007  0.2052  0.7251  -3.3886   0.0000   0.2888
   8.800   1.6541   0.07389   0.06767  -0.1008  0.2023  0.7275  -3.4514   0.0000   0.2878
   9.000   1.6624   0.07543   0.06935  -0.1002  0.1991  0.7291  -3.5058   0.0000   0.2867
   9.200   1.6646   0.07671   0.07072  -0.0987  0.1964  0.7299  -3.5473   0.0000   0.2852
   9.400   1.6661   0.07808   0.07217  -0.0972  0.1939  0.7309  -3.5875   0.0000   0.2838
   9.600   1.6673   0.07953   0.07365  -0.0958  0.1915  0.7321  -3.6268   0.0000   0.2825
  10.000   1.6710   0.08253   0.07680  -0.0936  0.1864  0.7346  -3.7119   0.0000   0.2800
  10.200   1.6734   0.08420   0.07859  -0.0927  0.1835  0.7361  -3.7583   0.0000   0.2789
  10.400   1.6757   0.08600   0.08046  -0.0921  0.1807  0.7376  -3.8050   0.0000   0.2780
  10.600   1.6783   0.08791   0.08241  -0.0917  0.1782  0.7391  -3.8523   0.0000   0.2771
  10.800   1.6819   0.08981   0.08434  -0.0914  0.1757  0.7407  -3.9024   0.0000   0.2763
  11.000   1.6860   0.09194   0.08661  -0.0915  0.1727  0.7423  -3.9521   0.0000   0.2756
  11.200   1.6903   0.09426   0.08904  -0.0919  0.1694  0.7440  -4.0025   0.0000   0.2752
  11.400   1.6968   0.09687   0.09170  -0.0930  0.1662  0.7462  -4.0624   0.0000   0.2749
  11.600   1.6947   0.09882   0.09367  -0.0925  0.1639  0.7470  -4.1018   0.0000   0.2742
  11.800   1.6923   0.10081   0.09578  -0.0921  0.1613  0.7479  -4.1388   0.0000   0.2735
  12.000   1.6896   0.10291   0.09800  -0.0919  0.1585  0.7488  -4.1744   0.0000   0.2728
  12.200   1.6868   0.10510   0.10027  -0.0919  0.1558  0.7497  -4.2096   0.0000   0.2723
  12.400   1.6841   0.10737   0.10259  -0.0921  0.1534  0.7507  -4.2446   0.0000   0.2719
  12.600   1.6823   0.10958   0.10483  -0.0924  0.1511  0.7518  -4.2823   0.0000   0.2716
  12.800   1.6801   0.11205   0.10745  -0.0930  0.1482  0.7528  -4.3163   0.0000   0.2714
  13.000   1.6776   0.11464   0.11014  -0.0939  0.1454  0.7539  -4.3490   0.0000   0.2713
  13.200   1.6752   0.11726   0.11282  -0.0949  0.1427  0.7549  -4.3819   0.0000   0.2714
  13.400   1.6739   0.11977   0.11534  -0.0960  0.1403  0.7561  -4.4185   0.0000   0.2714
  13.600   1.6715   0.12258   0.11828  -0.0974  0.1375  0.7572  -4.4484   0.0000   0.2717
  13.800   1.6687   0.12553   0.12133  -0.0990  0.1346  0.7584  -4.4761   0.0000   0.2721
  14.000   1.6667   0.12845   0.12432  -0.1009  0.1318  0.7598  -4.5065   0.0000   0.2725
  14.200   1.6676   0.13117   0.12704  -0.1027  0.1293  0.7614  -4.5470   0.0000   0.2729
  14.400   1.6667   0.13462   0.13064  -0.1055  0.1263  0.7631  -4.5756   0.0000   0.2738
  14.600   1.6605   0.13757   0.13369  -0.1072  0.1236  0.7638  -4.5902   0.0000   0.2744
  14.800   1.6548   0.14028   0.13645  -0.1087  0.1211  0.7645  -4.6075   0.0000   0.2749
  15.000   1.6518   0.14256   0.13873  -0.1100  0.1189  0.7652  -4.6378   0.0000   0.2750
  15.200   1.6442   0.14577   0.14207  -0.1122  0.1163  0.7659  -4.6442   0.0000   0.2760
  15.400   1.6376   0.14890   0.14529  -0.1144  0.1136  0.7666  -4.6538   0.0000   0.2769
  15.600   1.6334   0.15165   0.14808  -0.1164  0.1111  0.7674  -4.6748   0.0000   0.2775
  15.800   1.6314   0.15409   0.15053  -0.1182  0.1088  0.7682  -4.7062   0.0000   0.2780
  16.000   1.6235   0.15762   0.15419  -0.1211  0.1060  0.7689  -4.7057   0.0000   0.2794
  16.200   1.6184   0.16068   0.15733  -0.1237  0.1033  0.7697  -4.7189   0.0000   0.2804
  16.400   1.6171   0.16316   0.15981  -0.1257  0.1009  0.7706  -4.7502   0.0000   0.2810
  16.600   1.6129   0.16618   0.16289  -0.1284  0.0985  0.7715  -4.7647   0.0000   0.2821
  16.800   1.6065   0.16959   0.16641  -0.1315  0.0958  0.7724  -4.7659   0.0000   0.2836
  17.000   1.6051   0.17223   0.16907  -0.1339  0.0933  0.7737  -4.7926   0.0000   0.2844
  17.200   1.6071   0.17442   0.17125  -0.1360  0.0912  0.7751  -4.8361   0.0000   0.2848
  17.400   1.5997   0.17825   0.17521  -0.1398  0.0885  0.7761  -4.8252   0.0000   0.2868
  17.600   1.5980   0.18129   0.17831  -0.1430  0.0860  0.7774  -4.8440   0.0000   0.2881
  17.800   1.6051   0.18328   0.18026  -0.1453  0.0838  0.7791  -4.9089   0.0000   0.2883
  18.000   1.5972   0.18686   0.18396  -0.1488  0.0814  0.7797  -4.8936   0.0000   0.2902
  18.200   1.5923   0.18971   0.18687  -0.1516  0.0791  0.7802  -4.8968   0.0000   0.2914
  18.400   1.5925   0.19161   0.18877  -0.1533  0.0772  0.7809  -4.9314   0.0000   0.2917
  18.600   1.5915   0.19375   0.19093  -0.1553  0.0754  0.7816  -4.9573   0.0000   0.2923
  18.800   1.5841   0.19722   0.19451  -0.1589  0.0730  0.7821  -4.9389   0.0000   0.2941
  19.000   1.5829   0.19951   0.19682  -0.1612  0.0711  0.7828  -4.9607   0.0000   0.2949
  19.200   1.5882   0.20060   0.19787  -0.1622  0.0695  0.7838  -5.0245   0.0000   0.2944
  19.400   1.5802   0.20428   0.20167  -0.1662  0.0673  0.7843  -4.9960   0.0000   0.2966
  19.600   1.5767   0.20714   0.20459  -0.1693  0.0653  0.7850  -5.0007   0.0000   0.2980
  19.800   1.5806   0.20858   0.20601  -0.1708  0.0638  0.7862  -5.0579   0.0000   0.2979
  20.000   1.5807   0.21078   0.20824  -0.1733  0.0621  0.7873  -5.0859   0.0000   0.2986
  20.200   1.5739   0.21436   0.21192  -0.1773  0.0601  0.7881  -5.0603   0.0000   0.3008
  20.400   1.5752   0.21644   0.21402  -0.1798  0.0585  0.7894  -5.0944   0.0000   0.3014
  20.600   1.5842   0.21722   0.21475  -0.1808  0.0573  0.7911  -5.1844   0.0000   0.3006
  20.800   1.5757   0.22133   0.21899  -0.1856  0.0553  0.7917  -5.1376   0.0000   0.3033
  21.000   1.5740   0.22428   0.22199  -0.1892  0.0536  0.7928  -5.1397   0.0000   0.3049
  21.200   1.5816   0.22577   0.22348  -0.1914  0.0523  0.7942  -5.2135   0.0000   0.3048
  21.400   1.5841   0.22720   0.22491  -0.1930  0.0512  0.7949  -5.2619   0.0000   0.3048
  21.600   1.5721   0.23176   0.22961  -0.1984  0.0492  0.7951  -5.1805   0.0000   0.3082
  21.800   1.5723   0.23365   0.23151  -0.2006  0.0479  0.7957  -5.2070   0.0000   0.3087
  22.000   1.5782   0.23433   0.23218  -0.2014  0.0471  0.7966  -5.2856   0.0000   0.3079
  22.200   1.5733   0.23741   0.23533  -0.2051  0.0456  0.7971  -5.2612   0.0000   0.3097
  22.400   1.5618   0.24200   0.24003  -0.2107  0.0437  0.7973  -5.1676   0.0000   0.3133
  22.600   1.5665   0.24299   0.24102  -0.2120  0.0428  0.7982  -5.2323   0.0000   0.3129
  22.800   1.5749   0.24320   0.24120  -0.2124  0.0422  0.7994  -5.3346   0.0000   0.3115
  23.000   1.5450   0.25216   0.25036  -0.2232  0.0392  0.7988  -5.0258   0.0000   0.3201
  23.200   1.5511   0.25284   0.25104  -0.2242  0.0385  0.8000  -5.1040   0.0000   0.3193
  23.400   1.5600   0.25288   0.25106  -0.2245  0.0380  0.8014  -5.2149   0.0000   0.3178
  23.600   1.5709   0.25258   0.25073  -0.2245  0.0377  0.8032  -5.3449   0.0000   0.3158
  23.800   1.5227   0.26658   0.26496  -0.2410  0.0330  0.8011  -4.7410   0.0000   0.3302
  24.000   1.5373   0.26505   0.26341  -0.2397  0.0333  0.8031  -4.9363   0.0000   0.3269
  24.200   1.5548   0.26318   0.26150  -0.2381  0.0336  0.8054  -5.1577   0.0000   0.3232


