xflr5 v6.47

 Calculated polar for: NACA24018_theta30_Ku4.5_Kl0.5_d0.17_delta4.56

 1 1 Reynolds number fixed          Mach number fixed         

 xtrf =   1.000 (top)        1.000 (bottom)
 Mach =   0.000     Re =     2.000 e 6     Ncrit =   5.000

  alpha     CL        CD       CDp       Cm    Top Xtr Bot Xtr   Cpmin    Chinge    XCp    
 ------- -------- --------- --------- -------- ------- ------- -------- --------- ---------
 -15.000  -0.9641   0.02710   0.02250  -0.0914  0.9092  0.0272  -6.4984   0.0000   0.1322
 -14.800  -0.9486   0.02663   0.02202  -0.0911  0.9088  0.0276  -6.3717   0.0000   0.1311
 -14.600  -0.9289   0.02615   0.02154  -0.0916  0.9082  0.0280  -6.2307   0.0000   0.1288
 -14.400  -0.9070   0.02570   0.02108  -0.0923  0.9076  0.0284  -6.0829   0.0000   0.1258
 -14.200  -0.8833   0.02530   0.02067  -0.0932  0.9072  0.0287  -5.9300   0.0000   0.1221
 -14.000  -0.8578   0.02492   0.02028  -0.0944  0.9068  0.0291  -5.7723   0.0000   0.1177
 -13.800  -0.8305   0.02455   0.01991  -0.0958  0.9065  0.0294  -5.6099   0.0000   0.1124
 -13.600  -0.8011   0.02417   0.01953  -0.0976  0.9062  0.0299  -5.4424   0.0000   0.1059
 -13.400  -0.7853   0.02366   0.01902  -0.0971  0.9025  0.0303  -5.3222   0.0000   0.1043
 -13.200  -0.7591   0.02327   0.01863  -0.0983  0.9013  0.0309  -5.1710   0.0000   0.0984
 -13.000  -0.7311   0.02291   0.01828  -0.0998  0.9005  0.0315  -5.0186   0.0000   0.0913
 -12.800  -0.7019   0.02257   0.01794  -0.1014  0.8999  0.0322  -4.8645   0.0000   0.0832
 -12.600  -0.6723   0.02226   0.01762  -0.1031  0.8995  0.0328  -4.7110   0.0000   0.0742
 -12.400  -0.6430   0.02197   0.01734  -0.1047  0.8992  0.0333  -4.5603   0.0000   0.0645
 -12.200  -0.6123   0.02165   0.01703  -0.1066  0.8989  0.0340  -4.4074   0.0000   0.0529
 -12.000  -0.5803   0.02132   0.01671  -0.1086  0.8986  0.0348  -4.2528   0.0000   0.0394
 -11.800  -0.5487   0.02103   0.01642  -0.1106  0.8984  0.0356  -4.1010   0.0000   0.0246
 -11.600  -0.5177   0.02076   0.01616  -0.1124  0.8982  0.0363  -3.9531   0.0000   0.0084
 -11.400  -0.4862   0.02049   0.01589  -0.1143  0.8980  0.0371  -3.8092   0.0000  -0.0103
 -11.200  -0.4797   0.02059   0.01601  -0.1120  0.8940  0.0377  -3.7365   0.0000  -0.0082
 -10.000  -0.3603   0.02093   0.01643  -0.1112  0.8580  0.0426  -3.1058   0.0000  -0.0860
  -9.800  -0.3223   0.02049   0.01600  -0.1140  0.8487  0.0439  -2.9599   0.0000  -0.1330
  -9.600  -0.2799   0.01991   0.01542  -0.1176  0.8440  0.0453  -2.8091   0.0000  -0.2022
  -9.400  -0.2271   0.01896   0.01446  -0.1231  0.8375  0.0475  -2.6415   0.0000  -0.3294
  -9.200  -0.1469   0.01699   0.01234  -0.1334  0.8096  0.0503  -2.4193   0.0000  -0.7133
  -9.000  -0.1274   0.01695   0.01205  -0.1330  0.7501  0.0517  -2.3316   0.0000  -0.8547
  -8.800  -0.1087   0.01710   0.01208  -0.1325  0.7180  0.0531  -2.2461   0.0000  -1.0381
  -8.600  -0.0868   0.01720   0.01210  -0.1326  0.6924  0.0548  -2.1553   0.0000  -1.3601
  -8.400  -0.0635   0.01728   0.01209  -0.1330  0.6696  0.0568  -2.0627   0.0000  -1.9521
  -8.200  -0.0397   0.01734   0.01208  -0.1334  0.6470  0.0585  -1.9706   0.0000  -3.2744
  -8.000  -0.0143   0.01739   0.01206  -0.1341  0.6234  0.0610  -1.8808   0.0000  -9.5524
  -7.800   0.0109   0.01744   0.01203  -0.1348  0.6014  0.0632  -1.7926   0.0000  13.1822
  -7.600   0.0372   0.01747   0.01201  -0.1357  0.5824  0.0655  -1.7037   0.0000   4.0537
  -7.400   0.0637   0.01751   0.01199  -0.1366  0.5654  0.0681  -1.6171   0.0000   2.4807
  -7.200   0.0905   0.01754   0.01197  -0.1375  0.5480  0.0707  -1.5341   0.0000   1.8277
  -7.000   0.1177   0.01757   0.01195  -0.1385  0.5296  0.0739  -1.4527   0.0000   1.4697
  -6.800   0.1454   0.01760   0.01192  -0.1396  0.5113  0.0777  -1.3746   0.0000   1.2436
  -6.600   0.1726   0.01763   0.01191  -0.1406  0.4951  0.0816  -1.2982   0.0000   1.0911
  -6.400   0.2005   0.01768   0.01192  -0.1417  0.4795  0.0863  -1.2222   0.0000   0.9787
  -6.200   0.2278   0.01774   0.01193  -0.1428  0.4632  0.0913  -1.1481   0.0000   0.8946
  -6.000   0.2551   0.01780   0.01195  -0.1438  0.4475  0.0969  -1.0752   0.0000   0.8287
  -5.800   0.2829   0.01788   0.01201  -0.1449  0.4352  0.1034  -1.0027   0.0000   0.7748
  -5.600   0.3108   0.01796   0.01206  -0.1460  0.4224  0.1103  -0.9315   0.0000   0.7306
  -5.400   0.3388   0.01804   0.01212  -0.1471  0.4085  0.1184  -0.8640   0.0000   0.6935
  -5.200   0.3673   0.01814   0.01220  -0.1484  0.3966  0.1284  -0.8261   0.0000   0.6618
  -5.000   0.3959   0.01824   0.01229  -0.1496  0.3849  0.1393  -0.8556   0.0000   0.6346
  -4.800   0.4254   0.01836   0.01241  -0.1511  0.3747  0.1534  -0.8858   0.0000   0.6107
  -4.600   0.4581   0.01850   0.01258  -0.1531  0.3644  0.1773  -0.9184   0.0000   0.5889
  -4.400   0.4920   0.01866   0.01278  -0.1555  0.3538  0.2061  -0.9521   0.0000   0.5698
  -4.200   0.5345   0.01890   0.01314  -0.1595  0.3454  0.2608  -0.9920   0.0000   0.5514
  -4.000   0.5841   0.01924   0.01364  -0.1650  0.3367  0.3358  -1.0374   0.0000   0.5347
  -3.800   0.6201   0.01947   0.01392  -0.1677  0.3298  0.3695  -1.0736   0.0000   0.5220
  -3.600   0.6528   0.01968   0.01417  -0.1697  0.3248  0.3946  -1.1077   0.0000   0.5110
  -3.400   0.6844   0.01987   0.01438  -0.1714  0.3184  0.4162  -1.1412   0.0000   0.5011
  -3.200   0.7177   0.02010   0.01463  -0.1736  0.3118  0.4397  -1.1762   0.0000   0.4920
  -3.000   0.7483   0.02031   0.01485  -0.1751  0.3062  0.4578  -1.2100   0.0000   0.4837
  -2.800   0.7783   0.02051   0.01505  -0.1765  0.2999  0.4749  -1.2458   0.0000   0.4762
  -2.600   0.8101   0.02075   0.01531  -0.1783  0.2953  0.4945  -1.2832   0.0000   0.4691
  -2.400   0.8419   0.02100   0.01559  -0.1801  0.2922  0.5134  -1.3210   0.0000   0.4625
  -2.200   0.8727   0.02125   0.01585  -0.1817  0.2880  0.5281  -1.3581   0.0000   0.4564
  -2.000   0.8971   0.02142   0.01599  -0.1820  0.2832  0.5344  -1.3912   0.0000   0.4507
  -1.800   0.9234   0.02161   0.01616  -0.1827  0.2788  0.5401  -1.4265   0.0000   0.4454
  -1.600   0.9491   0.02180   0.01635  -0.1832  0.2762  0.5456  -1.4620   0.0000   0.4403
  -1.400   0.9733   0.02197   0.01651  -0.1835  0.2729  0.5502  -1.4974   0.0000   0.4355
  -1.200   0.9966   0.02213   0.01664  -0.1836  0.2689  0.5540  -1.5321   0.0000   0.4309
  -1.000   1.0212   0.02231   0.01680  -0.1840  0.2642  0.5584  -1.5682   0.0000   0.4265
  -0.800   1.0470   0.02252   0.01701  -0.1846  0.2617  0.5640  -1.6056   0.0000   0.4223
  -0.600   1.0716   0.02271   0.01720  -0.1849  0.2594  0.5695  -1.6421   0.0000   0.4183
  -0.400   1.0949   0.02288   0.01737  -0.1850  0.2566  0.5740  -1.6777   0.0000   0.4144
  -0.200   1.1193   0.02309   0.01756  -0.1853  0.2532  0.5787  -1.7144   0.0000   0.4107
   0.000   1.1442   0.02332   0.01777  -0.1857  0.2490  0.5838  -1.7518   0.0000   0.4072
   0.200   1.1680   0.02352   0.01797  -0.1859  0.2463  0.5886  -1.7890   0.0000   0.4038
   0.400   1.1910   0.02371   0.01815  -0.1860  0.2436  0.5931  -1.8280   0.0000   0.4004
   0.600   1.2140   0.02391   0.01835  -0.1860  0.2404  0.5973  -1.8671   0.0000   0.3972
   0.800   1.2390   0.02417   0.01859  -0.1864  0.2369  0.6028  -1.9085   0.0000   0.3942
   1.000   1.2624   0.02440   0.01881  -0.1866  0.2334  0.6076  -1.9485   0.0000   0.3912
   1.200   1.2849   0.02461   0.01902  -0.1865  0.2313  0.6117  -1.9879   0.0000   0.3883
   1.400   1.3067   0.02482   0.01923  -0.1863  0.2288  0.6151  -2.0269   0.0000   0.3855
   1.600   1.3299   0.02507   0.01947  -0.1864  0.2253  0.6194  -2.0706   0.0000   0.3828
   1.800   1.3536   0.02534   0.01973  -0.1866  0.2215  0.6247  -2.1150   0.0000   0.3801
   2.000   1.3761   0.02559   0.01997  -0.1866  0.2182  0.6295  -2.1582   0.0000   0.3776
   2.200   1.3978   0.02583   0.02021  -0.1864  0.2163  0.6337  -2.2010   0.0000   0.3750
   2.400   1.4192   0.02607   0.02045  -0.1861  0.2141  0.6373  -2.2435   0.0000   0.3726
   2.600   1.4426   0.02636   0.02075  -0.1862  0.2112  0.6422  -2.2887   0.0000   0.3702
   2.800   1.4645   0.02666   0.02103  -0.1861  0.2075  0.6466  -2.3323   0.0000   0.3679
   3.000   1.4856   0.02693   0.02130  -0.1858  0.2043  0.6505  -2.3764   0.0000   0.3656
   3.200   1.5063   0.02719   0.02156  -0.1854  0.2020  0.6538  -2.4224   0.0000   0.3633
   3.400   1.5265   0.02745   0.02182  -0.1850  0.1994  0.6568  -2.4680   0.0000   0.3611
   3.600   1.5485   0.02778   0.02215  -0.1848  0.1963  0.6613  -2.5161   0.0000   0.3590
   3.800   1.5693   0.02812   0.02247  -0.1845  0.1924  0.6655  -2.5630   0.0000   0.3569
   4.000   1.5900   0.02841   0.02277  -0.1841  0.1901  0.6695  -2.6130   0.0000   0.3548
   4.200   1.6101   0.02870   0.02306  -0.1837  0.1876  0.6731  -2.6629   0.0000   0.3528
   4.400   1.6295   0.02901   0.02336  -0.1831  0.1847  0.6760  -2.7122   0.0000   0.3507
   4.600   1.6489   0.02935   0.02369  -0.1825  0.1814  0.6792  -2.7636   0.0000   0.3488
   4.800   1.6691   0.02969   0.02404  -0.1821  0.1788  0.6827  -2.8164   0.0000   0.3468
   5.000   1.6889   0.03002   0.02438  -0.1816  0.1765  0.6861  -2.8707   0.0000   0.3449
   5.200   1.7080   0.03037   0.02473  -0.1809  0.1735  0.6897  -2.9244   0.0000   0.3430
   5.400   1.7261   0.03075   0.02510  -0.1801  0.1698  0.6928  -2.9768   0.0000   0.3411
   5.600   1.7442   0.03112   0.02546  -0.1794  0.1667  0.6954  -3.0295   0.0000   0.3393
   5.800   1.7620   0.03150   0.02584  -0.1785  0.1636  0.6976  -3.0832   0.0000   0.3374
   6.000   1.7792   0.03196   0.02629  -0.1776  0.1599  0.7007  -3.1408   0.0000   0.3356
   6.200   1.7960   0.03244   0.02677  -0.1766  0.1565  0.7039  -3.1980   0.0000   0.3338
   6.400   1.8134   0.03286   0.02720  -0.1757  0.1543  0.7071  -3.2582   0.0000   0.3320
   6.600   1.8300   0.03331   0.02766  -0.1747  0.1511  0.7100  -3.3199   0.0000   0.3302
   6.800   1.8454   0.03384   0.02817  -0.1735  0.1471  0.7127  -3.3813   0.0000   0.3284
   7.000   1.8618   0.03430   0.02863  -0.1725  0.1440  0.7150  -3.4468   0.0000   0.3267
   7.200   1.8776   0.03480   0.02913  -0.1714  0.1405  0.7168  -3.5146   0.0000   0.3250
   7.400   1.8920   0.03537   0.02968  -0.1701  0.1367  0.7195  -3.5802   0.0000   0.3232
   7.600   1.9075   0.03586   0.03019  -0.1689  0.1343  0.7221  -3.6501   0.0000   0.3215
   7.800   1.9216   0.03643   0.03077  -0.1676  0.1312  0.7246  -3.7229   0.0000   0.3198
   8.000   1.9338   0.03714   0.03147  -0.1660  0.1270  0.7271  -3.7945   0.0000   0.3180
   8.200   1.9474   0.03777   0.03210  -0.1646  0.1235  0.7295  -3.8696   0.0000   0.3163
   8.400   1.9598   0.03849   0.03281  -0.1630  0.1193  0.7316  -3.9427   0.0000   0.3146
   8.600   1.9728   0.03918   0.03349  -0.1616  0.1161  0.7334  -4.0175   0.0000   0.3130
   8.800   1.9859   0.03985   0.03417  -0.1602  0.1131  0.7350  -4.0930   0.0000   0.3113
   9.000   1.9965   0.04070   0.03502  -0.1584  0.1098  0.7363  -4.1636   0.0000   0.3096
   9.200   2.0075   0.04144   0.03578  -0.1567  0.1075  0.7386  -4.2353   0.0000   0.3079
   9.400   2.0186   0.04218   0.03654  -0.1551  0.1049  0.7409  -4.3078   0.0000   0.3063
   9.600   2.0284   0.04304   0.03740  -0.1533  0.1020  0.7429  -4.3846   0.0000   0.3046
   9.800   2.0378   0.04393   0.03831  -0.1515  0.0993  0.7447  -4.4614   0.0000   0.3030
  10.000   2.0460   0.04493   0.03932  -0.1495  0.0958  0.7465  -4.5366   0.0000   0.3013
  10.200   2.0537   0.04600   0.04039  -0.1476  0.0922  0.7482  -4.6128   0.0000   0.2997
  10.400   2.0612   0.04712   0.04151  -0.1457  0.0887  0.7500  -4.6890   0.0000   0.2980
  10.600   2.0675   0.04836   0.04275  -0.1437  0.0857  0.7517  -4.7626   0.0000   0.2964
  10.800   2.0762   0.04943   0.04385  -0.1420  0.0833  0.7532  -4.8426   0.0000   0.2949
  11.000   2.0816   0.05079   0.04521  -0.1400  0.0806  0.7544  -4.9144   0.0000   0.2933
  11.200   2.0880   0.05205   0.04650  -0.1382  0.0782  0.7556  -4.9889   0.0000   0.2918
  11.400   2.0919   0.05342   0.04789  -0.1361  0.0757  0.7573  -5.0585   0.0000   0.2902
  11.600   2.0942   0.05498   0.04948  -0.1340  0.0733  0.7589  -5.1246   0.0000   0.2886
  11.800   2.0985   0.05639   0.05092  -0.1321  0.0713  0.7605  -5.1967   0.0000   0.2872
  12.000   2.1010   0.05801   0.05258  -0.1302  0.0691  0.7620  -5.2639   0.0000   0.2857
  12.200   2.1022   0.05981   0.05440  -0.1283  0.0671  0.7633  -5.3295   0.0000   0.2843
  12.400   2.1046   0.06155   0.05618  -0.1266  0.0651  0.7646  -5.4016   0.0000   0.2829
  12.600   2.1047   0.06357   0.05824  -0.1249  0.0629  0.7658  -5.4666   0.0000   0.2816
  12.800   2.1051   0.06560   0.06031  -0.1233  0.0610  0.7670  -5.5327   0.0000   0.2803
  13.000   2.1055   0.06769   0.06243  -0.1219  0.0590  0.7682  -5.5984   0.0000   0.2791
  13.200   2.1030   0.07014   0.06492  -0.1205  0.0570  0.7693  -5.6553   0.0000   0.2780
  13.400   2.1023   0.07248   0.06730  -0.1194  0.0555  0.7704  -5.7174   0.0000   0.2769
  13.600   2.1004   0.07499   0.06986  -0.1183  0.0538  0.7715  -5.7754   0.0000   0.2759
  13.800   2.0964   0.07780   0.07271  -0.1174  0.0522  0.7723  -5.8261   0.0000   0.2750
  14.000   2.0946   0.08039   0.07536  -0.1167  0.0508  0.7731  -5.8837   0.0000   0.2742
  14.200   2.0906   0.08307   0.07809  -0.1159  0.0494  0.7741  -5.9334   0.0000   0.2733
  14.400   2.0843   0.08604   0.08112  -0.1153  0.0481  0.7751  -5.9742   0.0000   0.2726
  14.600   2.0780   0.08904   0.08418  -0.1149  0.0470  0.7759  -6.0148   0.0000   0.2720
  14.800   2.0724   0.09200   0.08720  -0.1146  0.0459  0.7768  -6.0567   0.0000   0.2714
  15.000   2.0653   0.09518   0.09045  -0.1146  0.0448  0.7777  -6.0924   0.0000   0.2710
  15.200   2.0565   0.09861   0.09395  -0.1147  0.0436  0.7786  -6.1211   0.0000   0.2707
  15.400   2.0487   0.10197   0.09737  -0.1151  0.0427  0.7795  -6.1519   0.0000   0.2704
  15.600   2.0415   0.10527   0.10074  -0.1156  0.0418  0.7804  -6.1841   0.0000   0.2702
  15.800   2.0334   0.10872   0.10426  -0.1163  0.0409  0.7813  -6.2118   0.0000   0.2702
  16.000   2.0241   0.11239   0.10799  -0.1172  0.0400  0.7822  -6.2335   0.0000   0.2702
  16.200   2.0142   0.11616   0.11183  -0.1184  0.0392  0.7830  -6.2512   0.0000   0.2705
  16.400   2.0072   0.11955   0.11529  -0.1196  0.0385  0.7838  -6.2805   0.0000   0.2706
  16.600   1.9994   0.12309   0.11890  -0.1209  0.0378  0.7845  -6.3062   0.0000   0.2708
  16.800   1.9901   0.12688   0.12276  -0.1226  0.0371  0.7853  -6.3241   0.0000   0.2712
  17.000   1.9799   0.13082   0.12677  -0.1245  0.0363  0.7860  -6.3365   0.0000   0.2718
  17.200   1.9691   0.13486   0.13088  -0.1266  0.0357  0.7866  -6.3448   0.0000   0.2725
  17.400   1.9605   0.13860   0.13469  -0.1286  0.0351  0.7873  -6.3609   0.0000   0.2731
  17.600   1.9537   0.14208   0.13823  -0.1305  0.0345  0.7881  -6.3842   0.0000   0.2737
  17.800   1.9450   0.14586   0.14208  -0.1328  0.0338  0.7888  -6.3972   0.0000   0.2744
  18.000   1.9353   0.14982   0.14610  -0.1354  0.0332  0.7895  -6.4038   0.0000   0.2754
  18.200   1.9256   0.15376   0.15011  -0.1380  0.0325  0.7901  -6.4091   0.0000   0.2763
  18.400   1.9180   0.15734   0.15374  -0.1404  0.0319  0.7907  -6.4266   0.0000   0.2772
  18.600   1.9086   0.16096   0.15742  -0.1429  0.0314  0.7916  -6.4350   0.0000   0.2781
  18.800   1.9014   0.16420   0.16072  -0.1450  0.0308  0.7924  -6.4540   0.0000   0.2788
  19.000   1.8927   0.16773   0.16431  -0.1476  0.0302  0.7931  -6.4632   0.0000   0.2797
  19.200   1.8840   0.17129   0.16793  -0.1502  0.0296  0.7938  -6.4704   0.0000   0.2807
  19.400   1.8765   0.17462   0.17131  -0.1527  0.0290  0.7945  -6.4839   0.0000   0.2817
  19.600   1.8690   0.17800   0.17475  -0.1553  0.0285  0.7952  -6.4949   0.0000   0.2826
  19.800   1.8646   0.18085   0.17764  -0.1575  0.0280  0.7960  -6.5228   0.0000   0.2833
  20.000   1.8591   0.18388   0.18072  -0.1600  0.0275  0.7968  -6.5436   0.0000   0.2841
  20.200   1.8531   0.18701   0.18390  -0.1626  0.0269  0.7976  -6.5603   0.0000   0.2850
  20.400   1.8491   0.18982   0.18675  -0.1649  0.0263  0.7985  -6.5877   0.0000   0.2857
  20.600   1.8413   0.19334   0.19032  -0.1680  0.0258  0.7994  -6.5903   0.0000   0.2870
  20.800   1.8395   0.19585   0.19287  -0.1702  0.0253  0.8003  -6.6282   0.0000   0.2876
  21.000   1.8344   0.19895   0.19602  -0.1730  0.0248  0.8011  -6.6449   0.0000   0.2886
  21.200   1.8317   0.20166   0.19876  -0.1755  0.0242  0.8019  -6.6751   0.0000   0.2893
  21.400   1.8290   0.20435   0.20148  -0.1781  0.0237  0.8027  -6.7050   0.0000   0.2900
  21.600   1.8229   0.20766   0.20484  -0.1813  0.0231  0.8034  -6.7115   0.0000   0.2913
  21.800   1.8213   0.21018   0.20738  -0.1837  0.0227  0.8041  -6.7465   0.0000   0.2920
  22.000   1.8185   0.21291   0.21016  -0.1864  0.0222  0.8048  -6.7725   0.0000   0.2928
  22.200   1.8158   0.21561   0.21290  -0.1891  0.0218  0.8054  -6.7988   0.0000   0.2937
  22.400   1.8144   0.21809   0.21540  -0.1916  0.0213  0.8060  -6.8330   0.0000   0.2943
  22.600   1.8100   0.22111   0.21846  -0.1948  0.0208  0.8065  -6.8451   0.0000   0.2955
  22.800   1.8071   0.22374   0.22112  -0.1975  0.0204  0.8071  -6.8680   0.0000   0.2964
  23.000   1.8059   0.22585   0.22326  -0.1996  0.0200  0.8078  -6.9042   0.0000   0.2968
  23.200   1.8020   0.22843   0.22590  -0.2023  0.0197  0.8085  -6.9205   0.0000   0.2977
  23.400   1.7999   0.23066   0.22816  -0.2045  0.0193  0.8092  -6.9497   0.0000   0.2983
  23.600   1.7984   0.23276   0.23029  -0.2067  0.0190  0.8100  -6.9827   0.0000   0.2988
  23.800   1.7939   0.23544   0.23301  -0.2095  0.0186  0.8107  -6.9916   0.0000   0.2998
  24.000   1.7913   0.23777   0.23537  -0.2120  0.0182  0.8114  -7.0138   0.0000   0.3005
  24.200   1.7893   0.23998   0.23761  -0.2144  0.0179  0.8121  -7.0407   0.0000   0.3011
  24.400   1.7861   0.24248   0.24015  -0.2172  0.0176  0.8128  -7.0552   0.0000   0.3021
  24.600   1.7852   0.24455   0.24225  -0.2195  0.0173  0.8134  -7.0887   0.0000   0.3026
  24.800   1.7851   0.24649   0.24422  -0.2217  0.0170  0.8141  -7.1270   0.0000   0.3029
  25.000   1.7827   0.24887   0.24664  -0.2244  0.0167  0.8148  -7.1457   0.0000   0.3038


