xflr5 v6.47

 Calculated polar for: NACA24018_theta30_Ku4.5_Kl0.5_d0.21_delta5.84

 1 1 Reynolds number fixed          Mach number fixed         

 xtrf =   1.000 (top)        1.000 (bottom)
 Mach =   0.000     Re =     0.400 e 6     Ncrit =   5.000

  alpha     CL        CD       CDp       Cm    Top Xtr Bot Xtr   Cpmin    Chinge    XCp    
 ------- -------- --------- --------- -------- ------- ------- -------- --------- ---------
 -15.000  -0.8060   0.04792   0.04238  -0.0868  0.9303  0.0404  -5.6065   0.0000   0.1168
 -14.800  -0.8024   0.04696   0.04139  -0.0862  0.9293  0.0407  -5.5393   0.0000   0.1176
 -14.600  -0.7968   0.04621   0.04061  -0.0857  0.9285  0.0411  -5.4654   0.0000   0.1178
 -14.400  -0.7904   0.04577   0.04014  -0.0853  0.9280  0.0415  -5.3886   0.0000   0.1179
 -14.200  -0.8143   0.04383   0.03817  -0.0799  0.9243  0.0415  -5.4131   0.0000   0.1287
 -14.000  -0.8059   0.04299   0.03730  -0.0796  0.9223  0.0420  -5.3294   0.0000   0.1284
 -13.200  -0.7522   0.03953   0.03365  -0.0799  0.9091  0.0442  -4.9335   0.0000   0.1220
 -13.000  -0.7308   0.03884   0.03295  -0.0812  0.9074  0.0449  -4.8080   0.0000   0.1171
 -12.800  -0.7115   0.03802   0.03212  -0.0819  0.9031  0.0455  -4.6893   0.0000   0.1132
 -12.600  -0.6896   0.03743   0.03152  -0.0829  0.9009  0.0464  -4.5671   0.0000   0.1081
 -12.400  -0.6651   0.03697   0.03102  -0.0842  0.8996  0.0474  -4.4412   0.0000   0.1016
 -12.200  -0.6390   0.03660   0.03060  -0.0857  0.8988  0.0484  -4.3128   0.0000   0.0939
 -12.000  -0.6206   0.03583   0.02983  -0.0861  0.8942  0.0491  -4.2065   0.0000   0.0893
 -11.800  -0.5946   0.03539   0.02940  -0.0876  0.8927  0.0501  -4.0778   0.0000   0.0805
 -11.600  -0.5671   0.03504   0.02903  -0.0893  0.8916  0.0511  -3.9471   0.0000   0.0702
 -11.400  -0.5385   0.03474   0.02871  -0.0910  0.8909  0.0524  -3.8156   0.0000   0.0582
 -11.200  -0.5177   0.03422   0.02817  -0.0915  0.8868  0.0535  -3.7071   0.0000   0.0504
 -11.000  -0.4899   0.03387   0.02784  -0.0932  0.8851  0.0547  -3.5783   0.0000   0.0365
 -10.800  -0.4607   0.03359   0.02755  -0.0949  0.8840  0.0562  -3.4479   0.0000   0.0201
 -10.600  -0.4307   0.03335   0.02729  -0.0967  0.8831  0.0577  -3.3179   0.0000   0.0007
 -10.400  -0.3989   0.03310   0.02705  -0.0989  0.8825  0.0592  -3.1884   0.0000  -0.0235
 -10.200  -0.3767   0.03268   0.02665  -0.0995  0.8779  0.0606  -3.0857   0.0000  -0.0404
 -10.000  -0.3470   0.03245   0.02640  -0.1012  0.8763  0.0624  -2.9663   0.0000  -0.0691
  -9.800  -0.3157   0.03223   0.02618  -0.1031  0.8752  0.0644  -2.8448   0.0000  -0.1058
  -9.600  -0.2832   0.03202   0.02600  -0.1053  0.8744  0.0665  -2.7211   0.0000  -0.1529
  -9.400  -0.2589   0.03172   0.02570  -0.1061  0.8703  0.0686  -2.6189   0.0000  -0.1925
  -9.200  -0.2279   0.03146   0.02545  -0.1079  0.8678  0.0709  -2.5025   0.0000  -0.2593
  -9.000  -0.1946   0.03120   0.02520  -0.1101  0.8662  0.0737  -2.3873   0.0000  -0.3561
  -8.800  -0.1694   0.03091   0.02492  -0.1110  0.8610  0.0763  -2.2921   0.0000  -0.4491
  -8.600  -0.1385   0.03064   0.02468  -0.1128  0.8573  0.0793  -2.1852   0.0000  -0.6161
  -8.000  -0.0768   0.03081   0.02493  -0.1132  0.8244  0.0882  -1.9392   0.0000  -1.3054
  -7.800  -0.0474   0.03082   0.02498  -0.1147  0.8183  0.0922  -1.8454   0.0000  -2.2942
  -7.600  -0.0153   0.03072   0.02489  -0.1166  0.8141  0.0972  -1.7477   0.0000  -7.7453
  -7.400   0.0173   0.03067   0.02488  -0.1185  0.8077  0.1029  -1.6506   0.0000   7.4255
  -7.200   0.0524   0.03052   0.02475  -0.1208  0.8023  0.1096  -1.5506   0.0000   2.6542
  -7.000   0.0884   0.03033   0.02459  -0.1233  0.7957  0.1177  -1.4506   0.0000   1.6984
  -6.800   0.1278   0.03005   0.02434  -0.1263  0.7889  0.1278  -1.3469   0.0000   1.2734
  -6.600   0.1717   0.02965   0.02398  -0.1300  0.7817  0.1414  -1.2427   0.0000   1.0319
  -6.400   0.2230   0.02899   0.02336  -0.1350  0.7725  0.1616  -1.1322   0.0000   0.8729
  -6.200   0.2875   0.02811   0.02255  -0.1424  0.7592  0.1980  -1.0079   0.0000   0.7579
  -6.000   0.4250   0.02728   0.02211  -0.1639  0.7301  0.3640  -0.8325   0.0000   0.6434
  -5.800   0.4927   0.02688   0.02161  -0.1722  0.6891  0.4218  -0.8877   0.0000   0.6054
  -5.600   0.5288   0.02706   0.02165  -0.1747  0.6555  0.4473  -0.9216   0.0000   0.5854
  -5.400   0.5580   0.02742   0.02189  -0.1760  0.6251  0.4654  -0.9516   0.0000   0.5696
  -5.200   0.5841   0.02783   0.02217  -0.1767  0.5971  0.4797  -0.9801   0.0000   0.5561
  -5.000   0.6095   0.02822   0.02243  -0.1773  0.5719  0.4923  -1.0082   0.0000   0.5438
  -4.800   0.6352   0.02862   0.02274  -0.1779  0.5488  0.5050  -1.0367   0.0000   0.5325
  -4.600   0.6604   0.02901   0.02304  -0.1785  0.5280  0.5175  -1.0659   0.0000   0.5220
  -4.400   0.6878   0.02944   0.02337  -0.1794  0.5076  0.5312  -1.0973   0.0000   0.5121
  -4.200   0.7128   0.02982   0.02368  -0.1799  0.4890  0.5445  -1.1271   0.0000   0.5031
  -4.000   0.7372   0.03018   0.02397  -0.1803  0.4719  0.5563  -1.1567   0.0000   0.4948
  -3.800   0.7639   0.03057   0.02429  -0.1810  0.4564  0.5667  -1.1881   0.0000   0.4868
  -3.600   0.7862   0.03084   0.02449  -0.1810  0.4428  0.5722  -1.2163   0.0000   0.4797
  -3.400   0.8052   0.03104   0.02463  -0.1803  0.4303  0.5764  -1.2420   0.0000   0.4730
  -3.200   0.8263   0.03130   0.02482  -0.1801  0.4177  0.5807  -1.2695   0.0000   0.4666
  -3.000   0.8505   0.03161   0.02506  -0.1804  0.4066  0.5857  -1.2996   0.0000   0.4604
  -2.800   0.8750   0.03196   0.02533  -0.1808  0.3962  0.5904  -1.3328   0.0000   0.4546
  -2.600   0.8923   0.03209   0.02545  -0.1798  0.3879  0.5940  -1.3600   0.0000   0.4491
  -2.400   0.9112   0.03230   0.02561  -0.1792  0.3789  0.5979  -1.3888   0.0000   0.4439
  -2.200   0.9326   0.03255   0.02583  -0.1789  0.3709  0.6021  -1.4198   0.0000   0.4388
  -2.000   0.9571   0.03290   0.02612  -0.1793  0.3627  0.6067  -1.4537   0.0000   0.4340
  -1.800   0.9797   0.03322   0.02638  -0.1794  0.3561  0.6109  -1.4860   0.0000   0.4294
  -1.600   0.9958   0.03333   0.02650  -0.1781  0.3506  0.6143  -1.5128   0.0000   0.4249
  -1.400   1.0136   0.03352   0.02668  -0.1773  0.3446  0.6181  -1.5412   0.0000   0.4206
  -1.200   1.0334   0.03380   0.02692  -0.1768  0.3388  0.6220  -1.5718   0.0000   0.4164
  -1.000   1.0578   0.03414   0.02724  -0.1771  0.3332  0.6262  -1.6092   0.0000   0.4125
  -0.800   1.0823   0.03454   0.02760  -0.1775  0.3272  0.6304  -1.6471   0.0000   0.4088
  -0.600   1.0954   0.03465   0.02771  -0.1758  0.3226  0.6333  -1.6743   0.0000   0.4050
  -0.400   1.1107   0.03481   0.02787  -0.1745  0.3185  0.6366  -1.7036   0.0000   0.4013
  -0.200   1.1289   0.03503   0.02809  -0.1737  0.3141  0.6402  -1.7359   0.0000   0.3978
   0.000   1.1507   0.03537   0.02842  -0.1736  0.3095  0.6441  -1.7717   0.0000   0.3944
   0.200   1.1766   0.03588   0.02888  -0.1742  0.3050  0.6484  -1.8119   0.0000   0.3914
   0.400   1.1935   0.03612   0.02912  -0.1732  0.3016  0.6515  -1.8432   0.0000   0.3882
   0.600   1.2057   0.03620   0.02925  -0.1714  0.2983  0.6540  -1.8702   0.0000   0.3849
   0.800   1.2195   0.03637   0.02943  -0.1698  0.2946  0.6568  -1.8995   0.0000   0.3817
   1.000   1.2357   0.03665   0.02970  -0.1687  0.2908  0.6598  -1.9320   0.0000   0.3787
   1.200   1.2547   0.03705   0.03007  -0.1682  0.2869  0.6630  -1.9679   0.0000   0.3759
   1.400   1.2792   0.03754   0.03057  -0.1686  0.2833  0.6670  -2.0114   0.0000   0.3733
   1.600   1.3018   0.03798   0.03101  -0.1686  0.2796  0.6705  -2.0543   0.0000   0.3708
   1.800   1.3112   0.03809   0.03114  -0.1663  0.2765  0.6725  -2.0827   0.0000   0.3678
   2.000   1.3218   0.03826   0.03142  -0.1642  0.2736  0.6745  -2.1126   0.0000   0.3649
   2.200   1.3340   0.03852   0.03160  -0.1625  0.2708  0.6767  -2.1443   0.0000   0.3622
   2.400   1.3490   0.03884   0.03193  -0.1612  0.2681  0.6794  -2.1792   0.0000   0.3596
   2.600   1.3674   0.03920   0.03232  -0.1605  0.2651  0.6825  -2.2182   0.0000   0.3572
   2.800   1.3902   0.03974   0.03286  -0.1607  0.2614  0.6862  -2.2624   0.0000   0.3551
   3.000   1.4167   0.04047   0.03357  -0.1615  0.2575  0.6898  -2.3115   0.0000   0.3532
   3.200   1.4246   0.04068   0.03379  -0.1591  0.2548  0.6912  -2.3402   0.0000   0.3505
   3.400   1.4331   0.04090   0.03403  -0.1567  0.2524  0.6926  -2.3696   0.0000   0.3479
   3.600   1.4434   0.04111   0.03430  -0.1547  0.2499  0.6942  -2.4015   0.0000   0.3454
   3.800   1.4547   0.04140   0.03463  -0.1528  0.2471  0.6960  -2.4359   0.0000   0.3430
   4.000   1.4669   0.04177   0.03502  -0.1512  0.2442  0.6980  -2.4717   0.0000   0.3407
   4.200   1.4802   0.04224   0.03549  -0.1498  0.2412  0.7001  -2.5106   0.0000   0.3385
   4.400   1.4951   0.04283   0.03608  -0.1487  0.2383  0.7025  -2.5517   0.0000   0.3365
   4.600   1.5168   0.04348   0.03676  -0.1488  0.2357  0.7059  -2.6037   0.0000   0.3347
   4.800   1.5433   0.04430   0.03761  -0.1497  0.2324  0.7095  -2.6625   0.0000   0.3333
   5.000   1.5506   0.04459   0.03793  -0.1472  0.2299  0.7106  -2.6962   0.0000   0.3310
   5.200   1.5582   0.04497   0.03835  -0.1449  0.2273  0.7116  -2.7313   0.0000   0.3287
   5.400   1.5656   0.04547   0.03886  -0.1426  0.2247  0.7127  -2.7674   0.0000   0.3265
   5.600   1.5735   0.04596   0.03937  -0.1404  0.2223  0.7138  -2.8042   0.0000   0.3243
   5.800   1.5834   0.04636   0.03983  -0.1385  0.2199  0.7152  -2.8440   0.0000   0.3222
   6.000   1.5936   0.04683   0.04035  -0.1367  0.2171  0.7166  -2.8844   0.0000   0.3202
   6.200   1.6043   0.04741   0.04096  -0.1351  0.2143  0.7183  -2.9258   0.0000   0.3182
   6.400   1.6152   0.04815   0.04171  -0.1336  0.2114  0.7201  -2.9713   0.0000   0.3163
   6.600   1.6270   0.04905   0.04262  -0.1323  0.2087  0.7221  -3.0198   0.0000   0.3146
   6.800   1.6461   0.04987   0.04350  -0.1322  0.2059  0.7248  -3.0807   0.0000   0.3132
   7.000   1.6726   0.05110   0.04476  -0.1333  0.2021  0.7287  -3.1546   0.0000   0.3122
   7.200   1.6777   0.05170   0.04539  -0.1309  0.1996  0.7294  -3.1926   0.0000   0.3102
   7.400   1.6817   0.05242   0.04614  -0.1285  0.1972  0.7302  -3.2289   0.0000   0.3081
   7.600   1.6857   0.05322   0.04697  -0.1261  0.1949  0.7309  -3.2683   0.0000   0.3062
   7.800   1.6931   0.05383   0.04764  -0.1241  0.1926  0.7318  -3.3170   0.0000   0.3043
   8.000   1.6997   0.05457   0.04845  -0.1221  0.1901  0.7327  -3.3647   0.0000   0.3025
   8.200   1.7058   0.05543   0.04935  -0.1202  0.1875  0.7336  -3.4117   0.0000   0.3007
   8.400   1.7112   0.05639   0.05034  -0.1182  0.1848  0.7347  -3.4578   0.0000   0.2989
   8.600   1.7151   0.05755   0.05152  -0.1163  0.1823  0.7358  -3.5024   0.0000   0.2972
   8.800   1.7232   0.05845   0.05249  -0.1147  0.1797  0.7372  -3.5553   0.0000   0.2956
   9.000   1.7310   0.05953   0.05363  -0.1133  0.1767  0.7388  -3.6105   0.0000   0.2941
   9.200   1.7388   0.06081   0.05495  -0.1121  0.1738  0.7404  -3.6676   0.0000   0.2926
   9.400   1.7470   0.06235   0.05652  -0.1112  0.1711  0.7423  -3.7255   0.0000   0.2913
   9.600   1.7623   0.06409   0.05831  -0.1114  0.1683  0.7451  -3.8056   0.0000   0.2904
   9.800   1.7766   0.06571   0.05999  -0.1114  0.1649  0.7475  -3.8858   0.0000   0.2894
  10.000   1.7774   0.06702   0.06136  -0.1095  0.1621  0.7480  -3.9330   0.0000   0.2879
  10.200   1.7767   0.06853   0.06290  -0.1075  0.1594  0.7486  -3.9766   0.0000   0.2864
  10.400   1.7768   0.06999   0.06442  -0.1058  0.1569  0.7492  -4.0221   0.0000   0.2849
  10.600   1.7785   0.07136   0.06585  -0.1042  0.1542  0.7499  -4.0712   0.0000   0.2835
  10.800   1.7792   0.07291   0.06747  -0.1027  0.1515  0.7506  -4.1179   0.0000   0.2822
  11.000   1.7785   0.07472   0.06933  -0.1013  0.1490  0.7513  -4.1610   0.0000   0.2809
  11.400   1.7797   0.07827   0.07301  -0.0991  0.1445  0.7529  -4.2531   0.0000   0.2787
  11.600   1.7807   0.08011   0.07492  -0.0982  0.1418  0.7537  -4.2998   0.0000   0.2776
  11.800   1.7799   0.08220   0.07706  -0.0975  0.1392  0.7547  -4.3440   0.0000   0.2767
  12.000   1.7774   0.08456   0.07947  -0.0968  0.1367  0.7557  -4.3842   0.0000   0.2759
  12.200   1.7782   0.08662   0.08160  -0.0964  0.1342  0.7570  -4.4337   0.0000   0.2751
  12.400   1.7790   0.08884   0.08390  -0.0962  0.1314  0.7583  -4.4846   0.0000   0.2744
  12.600   1.7784   0.09142   0.08653  -0.0963  0.1287  0.7597  -4.5311   0.0000   0.2739
  12.800   1.7766   0.09442   0.08957  -0.0968  0.1261  0.7612  -4.5729   0.0000   0.2737
  13.000   1.7834   0.09705   0.09229  -0.0980  0.1231  0.7633  -4.6406   0.0000   0.2735
  13.200   1.7883   0.10022   0.09552  -0.0996  0.1198  0.7652  -4.7018   0.0000   0.2736
  13.400   1.7814   0.10299   0.09835  -0.0997  0.1175  0.7656  -4.7281   0.0000   0.2733
  13.600   1.7764   0.10551   0.10094  -0.0998  0.1153  0.7659  -4.7601   0.0000   0.2729
  13.800   1.7719   0.10798   0.10349  -0.1000  0.1128  0.7664  -4.7934   0.0000   0.2726
  14.000   1.7654   0.11076   0.10633  -0.1005  0.1104  0.7668  -4.8186   0.0000   0.2724
  14.200   1.7569   0.11382   0.10944  -0.1012  0.1082  0.7673  -4.8361   0.0000   0.2725
  14.400   1.7516   0.11642   0.11212  -0.1018  0.1061  0.7678  -4.8641   0.0000   0.2724
  14.600   1.7463   0.11908   0.11485  -0.1025  0.1038  0.7684  -4.8908   0.0000   0.2724
  14.800   1.7391   0.12207   0.11790  -0.1036  0.1016  0.7690  -4.9097   0.0000   0.2726
  15.000   1.7305   0.12530   0.12118  -0.1050  0.0996  0.7696  -4.9223   0.0000   0.2730
  15.200   1.7263   0.12795   0.12391  -0.1060  0.0975  0.7704  -4.9504   0.0000   0.2732
  15.400   1.7212   0.13082   0.12684  -0.1074  0.0953  0.7711  -4.9739   0.0000   0.2735
  15.600   1.7146   0.13398   0.13006  -0.1091  0.0932  0.7718  -4.9901   0.0000   0.2741
  15.800   1.7072   0.13732   0.13345  -0.1111  0.0913  0.7725  -5.0033   0.0000   0.2748
  16.000   1.7044   0.14004   0.13625  -0.1127  0.0892  0.7733  -5.0345   0.0000   0.2752
  16.200   1.6996   0.14314   0.13941  -0.1147  0.0871  0.7741  -5.0561   0.0000   0.2759
  16.400   1.6940   0.14642   0.14273  -0.1170  0.0850  0.7750  -5.0729   0.0000   0.2767
  16.600   1.6894   0.14964   0.14600  -0.1194  0.0830  0.7759  -5.0926   0.0000   0.2776
  16.800   1.6871   0.15262   0.14904  -0.1216  0.0808  0.7769  -5.1213   0.0000   0.2783
  17.000   1.6831   0.15597   0.15244  -0.1243  0.0786  0.7780  -5.1405   0.0000   0.2794
  17.200   1.6793   0.15949   0.15600  -0.1274  0.0766  0.7793  -5.1589   0.0000   0.2806
  17.400   1.6824   0.16277   0.15934  -0.1307  0.0742  0.7812  -5.2035   0.0000   0.2817
  17.600   1.6799   0.16616   0.16277  -0.1338  0.0721  0.7824  -5.2253   0.0000   0.2829
  17.800   1.6731   0.16904   0.16568  -0.1359  0.0705  0.7828  -5.2346   0.0000   0.2837
  18.000   1.6695   0.17142   0.16812  -0.1376  0.0687  0.7832  -5.2587   0.0000   0.2842
  18.200   1.6650   0.17402   0.17077  -0.1395  0.0669  0.7837  -5.2766   0.0000   0.2849
  18.400   1.6599   0.17677   0.17354  -0.1417  0.0653  0.7841  -5.2907   0.0000   0.2857
  18.600   1.6556   0.17943   0.17624  -0.1439  0.0637  0.7846  -5.3088   0.0000   0.2866
  18.800   1.6534   0.18179   0.17866  -0.1458  0.0620  0.7851  -5.3376   0.0000   0.2871
  19.000   1.6495   0.18447   0.18138  -0.1481  0.0604  0.7856  -5.3560   0.0000   0.2880
  19.400   1.6444   0.18943   0.18641  -0.1525  0.0574  0.7868  -5.4055   0.0000   0.2894
  19.600   1.6417   0.19202   0.18905  -0.1548  0.0558  0.7874  -5.4270   0.0000   0.2903
  19.800   1.6391   0.19460   0.19165  -0.1573  0.0543  0.7880  -5.4487   0.0000   0.2911
  20.000   1.6376   0.19699   0.19406  -0.1595  0.0530  0.7888  -5.4762   0.0000   0.2918
  20.200   1.6360   0.19943   0.19656  -0.1619  0.0516  0.7896  -5.5015   0.0000   0.2926
  20.400   1.6346   0.20186   0.19902  -0.1643  0.0502  0.7906  -5.5277   0.0000   0.2934
  20.600   1.6329   0.20441   0.20158  -0.1669  0.0489  0.7916  -5.5506   0.0000   0.2943
  20.800   1.6327   0.20682   0.20404  -0.1695  0.0476  0.7926  -5.5803   0.0000   0.2951
  21.000   1.6334   0.20923   0.20649  -0.1721  0.0463  0.7938  -5.6137   0.0000   0.2958
  21.200   1.6341   0.21180   0.20909  -0.1750  0.0450  0.7949  -5.6449   0.0000   0.2968
  21.400   1.6351   0.21452   0.21183  -0.1783  0.0439  0.7960  -5.6754   0.0000   0.2978
  21.600   1.6394   0.21715   0.21451  -0.1816  0.0426  0.7974  -5.7208   0.0000   0.2987
  21.800   1.6411   0.21962   0.21701  -0.1846  0.0414  0.7983  -5.7559   0.0000   0.2996
  22.000   1.6387   0.22188   0.21929  -0.1869  0.0404  0.7986  -5.7731   0.0000   0.3004
  22.200   1.6376   0.22389   0.22133  -0.1890  0.0394  0.7990  -5.8009   0.0000   0.3009
  22.400   1.6368   0.22586   0.22334  -0.1911  0.0384  0.7994  -5.8324   0.0000   0.3014
  22.600   1.6354   0.22797   0.22550  -0.1933  0.0374  0.7999  -5.8581   0.0000   0.3021
  22.800   1.6340   0.23007   0.22761  -0.1956  0.0366  0.8003  -5.8839   0.0000   0.3027
  23.000   1.6336   0.23201   0.22956  -0.1978  0.0358  0.8008  -5.9166   0.0000   0.3032
  23.200   1.6333   0.23395   0.23156  -0.1999  0.0349  0.8013  -5.9480   0.0000   0.3037
  23.400   1.6321   0.23605   0.23370  -0.2023  0.0340  0.8019  -5.9719   0.0000   0.3044
  23.600   1.6314   0.23805   0.23572  -0.2046  0.0332  0.8026  -5.9999   0.0000   0.3050
  23.800   1.6315   0.23985   0.23751  -0.2067  0.0325  0.8034  -6.0347   0.0000   0.3055
  24.000   1.6312   0.24181   0.23953  -0.2090  0.0318  0.8042  -6.0636   0.0000   0.3060
  24.200   1.6305   0.24394   0.24170  -0.2116  0.0310  0.8050  -6.0859   0.0000   0.3068
  24.400   1.6307   0.24595   0.24375  -0.2141  0.0302  0.8058  -6.1151   0.0000   0.3074
  24.600   1.6317   0.24785   0.24566  -0.2165  0.0295  0.8067  -6.1510   0.0000   0.3079
  24.800   1.6337   0.24961   0.24741  -0.2188  0.0289  0.8075  -6.1958   0.0000   0.3082
  25.000   1.6336   0.25194   0.24981  -0.2218  0.0282  0.8083  -6.2140   0.0000   0.3092


