xflr5 v6.47

 Calculated polar for: NACA24018_theta30_Ku4.5_Kl0.5_d0.14_delta3.44

 1 1 Reynolds number fixed          Mach number fixed         

 xtrf =   1.000 (top)        1.000 (bottom)
 Mach =   0.000     Re =     0.800 e 6     Ncrit =   5.000

  alpha     CL        CD       CDp       Cm    Top Xtr Bot Xtr   Cpmin    Chinge    XCp    
 ------- -------- --------- --------- -------- ------- ------- -------- --------- ---------
 -15.000  -0.9420   0.03527   0.03003  -0.0878  0.9603  0.0313  -6.3195   0.0000   0.1324
 -14.000  -0.9111   0.03115   0.02577  -0.0815  0.9506  0.0328  -5.8756   0.0000   0.1383
 -13.800  -0.8950   0.03053   0.02511  -0.0816  0.9486  0.0332  -5.7579   0.0000   0.1367
 -13.600  -0.8829   0.02970   0.02424  -0.0810  0.9443  0.0335  -5.6542   0.0000   0.1365
 -13.400  -0.8696   0.02908   0.02358  -0.0806  0.9423  0.0338  -5.5466   0.0000   0.1359
 -13.200  -0.8556   0.02847   0.02296  -0.0804  0.9411  0.0343  -5.4380   0.0000   0.1350
 -13.000  -0.8558   0.02753   0.02200  -0.0775  0.9361  0.0346  -5.3754   0.0000   0.1388
 -12.800  -0.8422   0.02695   0.02140  -0.0770  0.9347  0.0350  -5.2674   0.0000   0.1382
 -12.400  -0.8158   0.02569   0.02011  -0.0755  0.9294  0.0361  -5.0555   0.0000   0.1377
 -12.200  -0.7959   0.02519   0.01959  -0.0757  0.9281  0.0367  -4.9297   0.0000   0.1352
 -12.000  -0.7739   0.02474   0.01911  -0.0763  0.9272  0.0373  -4.8000   0.0000   0.1318
 -11.800  -0.7504   0.02431   0.01866  -0.0771  0.9266  0.0379  -4.6715   0.0000   0.1277
 -11.600  -0.7397   0.02362   0.01798  -0.0758  0.9221  0.0384  -4.5812   0.0000   0.1284
 -11.400  -0.7175   0.02316   0.01751  -0.0763  0.9208  0.0391  -4.4574   0.0000   0.1245
 -11.200  -0.6933   0.02274   0.01709  -0.0772  0.9199  0.0399  -4.3293   0.0000   0.1196
 -11.000  -0.6683   0.02236   0.01670  -0.0781  0.9193  0.0407  -4.1999   0.0000   0.1140
 -10.800  -0.6533   0.02187   0.01620  -0.0772  0.9150  0.0414  -4.1002   0.0000   0.1128
 -10.600  -0.6298   0.02147   0.01579  -0.0778  0.9132  0.0422  -3.9780   0.0000   0.1075
 -10.200  -0.5883   0.02064   0.01499  -0.0781  0.9068  0.0441  -3.7511   0.0000   0.0983
 -10.000  -0.5654   0.02029   0.01463  -0.0785  0.9037  0.0450  -3.6338   0.0000   0.0921
  -9.800  -0.5518   0.02000   0.01434  -0.0773  0.8947  0.0458  -3.5425   0.0000   0.0911
  -9.400  -0.5096   0.01950   0.01385  -0.0775  0.8809  0.0478  -3.3233   0.0000   0.0790
  -9.200  -0.4841   0.01922   0.01358  -0.0783  0.8762  0.0491  -3.2037   0.0000   0.0691
  -9.000  -0.4557   0.01889   0.01325  -0.0795  0.8727  0.0506  -3.0824   0.0000   0.0559
  -8.800  -0.4284   0.01859   0.01294  -0.0806  0.8662  0.0519  -2.9668   0.0000   0.0419
  -8.600  -0.3969   0.01818   0.01255  -0.0824  0.8615  0.0536  -2.8428   0.0000   0.0218
  -8.400  -0.3649   0.01779   0.01216  -0.0842  0.8553  0.0554  -2.7195   0.0000  -0.0024
  -8.200  -0.3290   0.01731   0.01166  -0.0868  0.8493  0.0574  -2.5903   0.0000  -0.0364
  -8.000  -0.2902   0.01674   0.01110  -0.0899  0.8415  0.0600  -2.4615   0.0000  -0.0843
  -7.400  -0.1626   0.01493   0.00915  -0.1013  0.8043  0.0689  -2.0676   0.0000  -0.4104
  -7.200  -0.1263   0.01452   0.00865  -0.1041  0.7799  0.0724  -1.9534   0.0000  -0.6200
  -7.000  -0.0982   0.01434   0.00836  -0.1052  0.7528  0.0755  -1.8608   0.0000  -0.8775
  -6.800  -0.0733   0.01426   0.00819  -0.1058  0.7288  0.0786  -1.7757   0.0000  -1.2659
  -6.600  -0.0495   0.01422   0.00807  -0.1062  0.7057  0.0823  -1.6937   0.0000  -1.9984
  -6.400  -0.0261   0.01421   0.00798  -0.1065  0.6827  0.0863  -1.6136   0.0000  -4.0224
  -6.200  -0.0027   0.01421   0.00791  -0.1068  0.6607  0.0909  -1.5347   0.0000  -40.4071
  -6.000   0.0216   0.01421   0.00785  -0.1074  0.6402  0.0959  -1.4584   0.0000   5.4215
  -5.800   0.0459   0.01423   0.00780  -0.1078  0.6208  0.1014  -1.3837   0.0000   2.6876
  -5.600   0.0710   0.01424   0.00777  -0.1085  0.6009  0.1078  -1.3089   0.0000   1.8323
  -5.400   0.0961   0.01426   0.00774  -0.1092  0.5817  0.1148  -1.2382   0.0000   1.4231
  -5.000   0.1484   0.01430   0.00771  -0.1109  0.5480  0.1346  -1.0977   0.0000   1.0183
  -4.800   0.1756   0.01431   0.00771  -0.1119  0.5325  0.1484  -1.0276   0.0000   0.9041
  -4.600   0.2043   0.01432   0.00773  -0.1134  0.5160  0.1678  -0.9566   0.0000   0.8181
  -4.400   0.2348   0.01433   0.00777  -0.1152  0.4989  0.1964  -0.8856   0.0000   0.7510
  -4.200   0.2702   0.01432   0.00785  -0.1181  0.4804  0.2453  -0.8153   0.0000   0.6951
  -4.000   0.3171   0.01431   0.00807  -0.1234  0.4609  0.3396  -0.8444   0.0000   0.6454
  -3.800   0.3568   0.01439   0.00825  -0.1271  0.4444  0.3954  -0.8794   0.0000   0.6110
  -3.600   0.3893   0.01450   0.00837  -0.1292  0.4307  0.4242  -0.9100   0.0000   0.5856
  -3.400   0.4210   0.01462   0.00850  -0.1311  0.4185  0.4463  -0.9419   0.0000   0.5642
  -3.200   0.4535   0.01475   0.00864  -0.1331  0.4074  0.4697  -0.9757   0.0000   0.5456
  -3.000   0.4858   0.01490   0.00879  -0.1351  0.3964  0.4938  -1.0096   0.0000   0.5296
  -2.800   0.5164   0.01505   0.00893  -0.1368  0.3857  0.5110  -1.0425   0.0000   0.5156
  -2.600   0.5469   0.01521   0.00907  -0.1384  0.3757  0.5272  -1.0756   0.0000   0.5032
  -2.400   0.5775   0.01538   0.00923  -0.1400  0.3654  0.5436  -1.1090   0.0000   0.4921
  -2.200   0.6079   0.01555   0.00939  -0.1415  0.3572  0.5587  -1.1424   0.0000   0.4821
  -2.000   0.6386   0.01574   0.00957  -0.1432  0.3485  0.5751  -1.1763   0.0000   0.4730
  -1.800   0.6668   0.01591   0.00973  -0.1443  0.3419  0.5864  -1.2086   0.0000   0.4648
  -1.600   0.6926   0.01607   0.00986  -0.1449  0.3356  0.5931  -1.2407   0.0000   0.4573
  -1.400   0.7173   0.01623   0.00998  -0.1453  0.3299  0.5988  -1.2720   0.0000   0.4503
  -1.200   0.7429   0.01638   0.01013  -0.1459  0.3253  0.6045  -1.3051   0.0000   0.4437
  -1.000   0.7682   0.01654   0.01028  -0.1464  0.3200  0.6109  -1.3387   0.0000   0.4376
  -0.600   0.8173   0.01688   0.01058  -0.1471  0.3103  0.6218  -1.4053   0.0000   0.4264
  -0.400   0.8418   0.01705   0.01074  -0.1475  0.3057  0.6273  -1.4389   0.0000   0.4213
  -0.200   0.8658   0.01723   0.01089  -0.1478  0.3011  0.6327  -1.4722   0.0000   0.4165
   0.000   0.8897   0.01742   0.01106  -0.1480  0.2969  0.6378  -1.5067   0.0000   0.4119
   0.200   0.9139   0.01759   0.01125  -0.1483  0.2931  0.6437  -1.5422   0.0000   0.4075
   0.400   0.9379   0.01778   0.01142  -0.1486  0.2891  0.6495  -1.5776   0.0000   0.4034
   0.600   0.9613   0.01798   0.01161  -0.1488  0.2854  0.6547  -1.6126   0.0000   0.3994
   0.800   0.9843   0.01819   0.01181  -0.1488  0.2817  0.6602  -1.6475   0.0000   0.3956
   1.000   1.0079   0.01837   0.01200  -0.1490  0.2787  0.6657  -1.6831   0.0000   0.3919
   1.400   1.0529   0.01877   0.01239  -0.1490  0.2714  0.6749  -1.7563   0.0000   0.3850
   1.600   1.0749   0.01900   0.01261  -0.1489  0.2680  0.6798  -1.7942   0.0000   0.3817
   1.800   1.0977   0.01921   0.01282  -0.1489  0.2652  0.6849  -1.8332   0.0000   0.3786
   2.000   1.1200   0.01942   0.01303  -0.1488  0.2622  0.6895  -1.8719   0.0000   0.3756
   2.200   1.1410   0.01962   0.01325  -0.1485  0.2589  0.6943  -1.9094   0.0000   0.3726
   2.400   1.1625   0.01986   0.01348  -0.1483  0.2554  0.6993  -1.9477   0.0000   0.3698
   2.600   1.1844   0.02013   0.01373  -0.1482  0.2519  0.7038  -1.9869   0.0000   0.3670
   2.800   1.2052   0.02034   0.01396  -0.1479  0.2493  0.7078  -2.0266   0.0000   0.3643
   3.000   1.2249   0.02055   0.01419  -0.1474  0.2464  0.7120  -2.0654   0.0000   0.3616
   3.200   1.2455   0.02079   0.01444  -0.1470  0.2435  0.7163  -2.1052   0.0000   0.3591
   3.400   1.2667   0.02107   0.01471  -0.1468  0.2405  0.7204  -2.1459   0.0000   0.3566
   3.600   1.2873   0.02136   0.01498  -0.1464  0.2373  0.7238  -2.1877   0.0000   0.3542
   3.800   1.3051   0.02157   0.01522  -0.1455  0.2350  0.7273  -2.2268   0.0000   0.3517
   4.000   1.3239   0.02180   0.01548  -0.1448  0.2322  0.7311  -2.2673   0.0000   0.3493
   4.200   1.3437   0.02208   0.01576  -0.1444  0.2294  0.7351  -2.3105   0.0000   0.3471
   4.400   1.3645   0.02240   0.01608  -0.1441  0.2263  0.7389  -2.3562   0.0000   0.3449
   4.600   1.3822   0.02273   0.01640  -0.1433  0.2232  0.7422  -2.3996   0.0000   0.3427
   4.800   1.3979   0.02297   0.01668  -0.1420  0.2210  0.7453  -2.4408   0.0000   0.3403
   5.000   1.4149   0.02324   0.01698  -0.1410  0.2185  0.7487  -2.4837   0.0000   0.3381
   5.200   1.4331   0.02356   0.01730  -0.1403  0.2156  0.7521  -2.5284   0.0000   0.3360
   5.400   1.4525   0.02393   0.01767  -0.1398  0.2124  0.7553  -2.5748   0.0000   0.3341
   5.600   1.4724   0.02435   0.01807  -0.1394  0.2093  0.7583  -2.6220   0.0000   0.3322
   5.800   1.4856   0.02460   0.01836  -0.1377  0.2072  0.7608  -2.6615   0.0000   0.3299
   6.000   1.4999   0.02488   0.01868  -0.1363  0.2048  0.7635  -2.7076   0.0000   0.3278
   6.200   1.5153   0.02520   0.01902  -0.1351  0.2022  0.7662  -2.7553   0.0000   0.3257
   6.400   1.5315   0.02559   0.01942  -0.1341  0.1995  0.7690  -2.8046   0.0000   0.3238
   6.600   1.5489   0.02607   0.01989  -0.1333  0.1966  0.7718  -2.8557   0.0000   0.3220
   6.800   1.5688   0.02653   0.02036  -0.1330  0.1939  0.7745  -2.9107   0.0000   0.3204
   7.000   1.5824   0.02689   0.02075  -0.1315  0.1911  0.7767  -2.9569   0.0000   0.3184
   7.200   1.5927   0.02723   0.02112  -0.1295  0.1881  0.7787  -2.9985   0.0000   0.3162
   7.400   1.6038   0.02764   0.02154  -0.1276  0.1853  0.7809  -3.0413   0.0000   0.3142
   7.600   1.6157   0.02811   0.02203  -0.1259  0.1825  0.7831  -3.0909   0.0000   0.3122
   7.800   1.6307   0.02855   0.02250  -0.1248  0.1805  0.7855  -3.1480   0.0000   0.3105
   8.000   1.6468   0.02906   0.02304  -0.1239  0.1781  0.7879  -3.2076   0.0000   0.3088
   8.200   1.6640   0.02965   0.02364  -0.1233  0.1752  0.7902  -3.2695   0.0000   0.3073
   8.400   1.6814   0.03035   0.02432  -0.1227  0.1717  0.7923  -3.3321   0.0000   0.3059
   8.600   1.6883   0.03080   0.02481  -0.1203  0.1691  0.7938  -3.3798   0.0000   0.3038
   8.800   1.6958   0.03126   0.02531  -0.1179  0.1665  0.7954  -3.4315   0.0000   0.3017
   9.000   1.7036   0.03179   0.02587  -0.1157  0.1637  0.7970  -3.4838   0.0000   0.2997
   9.200   1.7126   0.03240   0.02650  -0.1138  0.1609  0.7986  -3.5387   0.0000   0.2979
   9.400   1.7216   0.03312   0.02723  -0.1120  0.1581  0.8003  -3.5940   0.0000   0.2961
   9.600   1.7332   0.03377   0.02792  -0.1106  0.1557  0.8021  -3.6554   0.0000   0.2945
   9.800   1.7455   0.03451   0.02869  -0.1093  0.1526  0.8039  -3.7247   0.0000   0.2930
  10.000   1.7580   0.03541   0.02960  -0.1083  0.1492  0.8059  -3.7947   0.0000   0.2915
  10.200   1.7715   0.03643   0.03062  -0.1075  0.1458  0.8077  -3.8675   0.0000   0.2902
  10.400   1.7834   0.03728   0.03150  -0.1064  0.1429  0.8092  -3.9372   0.0000   0.2888
  10.600   1.7864   0.03806   0.03232  -0.1039  0.1404  0.8103  -3.9911   0.0000   0.2869
  10.800   1.7889   0.03897   0.03327  -0.1014  0.1379  0.8113  -4.0441   0.0000   0.2850
  11.000   1.7916   0.04000   0.03432  -0.0991  0.1354  0.8124  -4.0976   0.0000   0.2832
  11.200   1.7969   0.04090   0.03527  -0.0971  0.1332  0.8135  -4.1575   0.0000   0.2816
  11.400   1.8012   0.04196   0.03637  -0.0952  0.1304  0.8146  -4.2152   0.0000   0.2800
  11.600   1.8043   0.04320   0.03764  -0.0933  0.1273  0.8158  -4.2716   0.0000   0.2784
  11.800   1.8074   0.04455   0.03901  -0.0916  0.1244  0.8170  -4.3285   0.0000   0.2769
  12.000   1.8132   0.04582   0.04033  -0.0903  0.1218  0.8184  -4.3922   0.0000   0.2756
  12.200   1.8186   0.04728   0.04183  -0.0891  0.1190  0.8197  -4.4554   0.0000   0.2744
  12.400   1.8233   0.04900   0.04358  -0.0882  0.1161  0.8210  -4.5163   0.0000   0.2732
  12.600   1.8304   0.05072   0.04533  -0.0876  0.1136  0.8224  -4.5861   0.0000   0.2723
  12.800   1.8391   0.05258   0.04723  -0.0875  0.1106  0.8238  -4.6627   0.0000   0.2715
  13.000   1.8426   0.05463   0.04932  -0.0868  0.1075  0.8250  -4.7253   0.0000   0.2705
  13.200   1.8381   0.05660   0.05133  -0.0851  0.1053  0.8256  -4.7658   0.0000   0.2692
  13.400   1.8363   0.05834   0.05313  -0.0836  0.1032  0.8262  -4.8152   0.0000   0.2680
  13.600   1.8332   0.06030   0.05515  -0.0823  0.1010  0.8268  -4.8602   0.0000   0.2669
  13.800   1.8284   0.06255   0.05745  -0.0811  0.0987  0.8274  -4.8999   0.0000   0.2658
  14.000   1.8220   0.06509   0.06004  -0.0801  0.0966  0.8279  -4.9341   0.0000   0.2649
  14.200   1.8186   0.06732   0.06235  -0.0793  0.0948  0.8285  -4.9771   0.0000   0.2640
  14.400   1.8136   0.06979   0.06488  -0.0785  0.0927  0.8290  -5.0148   0.0000   0.2632
  14.600   1.8068   0.07257   0.06773  -0.0781  0.0906  0.8296  -5.0458   0.0000   0.2626
  14.800   1.7978   0.07572   0.07093  -0.0778  0.0887  0.8302  -5.0690   0.0000   0.2621
  15.000   1.7911   0.07867   0.07396  -0.0777  0.0870  0.8308  -5.0987   0.0000   0.2616
  15.200   1.7845   0.08170   0.07706  -0.0778  0.0851  0.8314  -5.1279   0.0000   0.2613
  15.400   1.7758   0.08509   0.08052  -0.0782  0.0832  0.8320  -5.1493   0.0000   0.2611
  15.600   1.7652   0.08883   0.08433  -0.0788  0.0813  0.8325  -5.1628   0.0000   0.2612
  15.800   1.7554   0.09256   0.08812  -0.0797  0.0797  0.8331  -5.1776   0.0000   0.2613
  16.000   1.7478   0.09604   0.09169  -0.0806  0.0781  0.8337  -5.1990   0.0000   0.2614
  16.200   1.7384   0.09982   0.09554  -0.0818  0.0762  0.8343  -5.2132   0.0000   0.2618
  16.400   1.7272   0.10395   0.09974  -0.0833  0.0745  0.8349  -5.2200   0.0000   0.2623
  16.600   1.7152   0.10830   0.10416  -0.0851  0.0729  0.8356  -5.2218   0.0000   0.2631
  16.800   1.7080   0.11216   0.10810  -0.0870  0.0713  0.8364  -5.2401   0.0000   0.2637
  17.000   1.7001   0.11629   0.11229  -0.0892  0.0695  0.8373  -5.2540   0.0000   0.2646
  17.200   1.6914   0.12074   0.11682  -0.0918  0.0678  0.8381  -5.2620   0.0000   0.2658
  17.400   1.6819   0.12551   0.12165  -0.0950  0.0662  0.8389  -5.2644   0.0000   0.2673
  17.600   1.6795   0.12965   0.12586  -0.0981  0.0647  0.8399  -5.2926   0.0000   0.2686
  17.800   1.6707   0.13320   0.12947  -0.0999  0.0632  0.8402  -5.2998   0.0000   0.2693
  18.000   1.6606   0.13678   0.13311  -0.1017  0.0618  0.8405  -5.3009   0.0000   0.2701
  18.200   1.6488   0.14069   0.13707  -0.1039  0.0606  0.8408  -5.2923   0.0000   0.2713
  18.400   1.6394   0.14419   0.14063  -0.1058  0.0594  0.8411  -5.2933   0.0000   0.2722
  18.600   1.6331   0.14717   0.14366  -0.1074  0.0581  0.8414  -5.3073   0.0000   0.2728
  18.800   1.6248   0.15046   0.14701  -0.1094  0.0568  0.8417  -5.3111   0.0000   0.2736
  19.000   1.6170   0.15363   0.15022  -0.1112  0.0554  0.8421  -5.3174   0.0000   0.2745
  19.400   1.6023   0.15990   0.15658  -0.1152  0.0530  0.8429  -5.3316   0.0000   0.2763
  19.600   1.5957   0.16298   0.15972  -0.1172  0.0517  0.8433  -5.3401   0.0000   0.2772
  19.800   1.5904   0.16591   0.16268  -0.1192  0.0504  0.8437  -5.3568   0.0000   0.2781
  20.000   1.5832   0.16923   0.16604  -0.1217  0.0493  0.8441  -5.3622   0.0000   0.2793
  20.200   1.5793   0.17206   0.16890  -0.1238  0.0482  0.8446  -5.3834   0.0000   0.2801
  20.400   1.5772   0.17462   0.17151  -0.1257  0.0471  0.8450  -5.4140   0.0000   0.2808
  20.600   1.5729   0.17762   0.17455  -0.1281  0.0460  0.8455  -5.4308   0.0000   0.2818
  20.800   1.5699   0.18042   0.17738  -0.1303  0.0448  0.8460  -5.4538   0.0000   0.2828
  21.200   1.5645   0.18609   0.18312  -0.1352  0.0428  0.8471  -5.4986   0.0000   0.2847
  21.400   1.5639   0.18859   0.18566  -0.1373  0.0417  0.8478  -5.5323   0.0000   0.2855
  21.600   1.5609   0.19159   0.18870  -0.1401  0.0406  0.8485  -5.5499   0.0000   0.2867
  21.800   1.5587   0.19455   0.19167  -0.1428  0.0396  0.8493  -5.5707   0.0000   0.2879
  22.000   1.5597   0.19707   0.19423  -0.1453  0.0386  0.8501  -5.6092   0.0000   0.2887
  22.200   1.5602   0.19990   0.19710  -0.1482  0.0376  0.8510  -5.6415   0.0000   0.2898
  22.400   1.5617   0.20281   0.20004  -0.1514  0.0366  0.8519  -5.6768   0.0000   0.2910
  22.600   1.5641   0.20594   0.20319  -0.1550  0.0356  0.8529  -5.7136   0.0000   0.2924
  22.800   1.5694   0.20951   0.20680  -0.1595  0.0346  0.8541  -5.7577   0.0000   0.2941
  23.000   1.5693   0.21176   0.20908  -0.1617  0.0338  0.8545  -5.7906   0.0000   0.2948
  23.200   1.5678   0.21392   0.21127  -0.1636  0.0330  0.8548  -5.8175   0.0000   0.2953
  23.400   1.5647   0.21639   0.21376  -0.1659  0.0322  0.8550  -5.8325   0.0000   0.2963
  23.600   1.5611   0.21894   0.21634  -0.1683  0.0315  0.8553  -5.8424   0.0000   0.2973
  23.800   1.5604   0.22084   0.21827  -0.1700  0.0308  0.8556  -5.8739   0.0000   0.2977
  24.000   1.5598   0.22269   0.22015  -0.1717  0.0302  0.8560  -5.9061   0.0000   0.2981
  24.200   1.5572   0.22498   0.22248  -0.1738  0.0295  0.8563  -5.9216   0.0000   0.2989
  24.400   1.5552   0.22721   0.22473  -0.1760  0.0288  0.8567  -5.9405   0.0000   0.2997
  24.600   1.5536   0.22939   0.22693  -0.1781  0.0281  0.8571  -5.9626   0.0000   0.3004
  24.800   1.5528   0.23152   0.22908  -0.1803  0.0275  0.8575  -5.9893   0.0000   0.3011
  25.000   1.5523   0.23365   0.23126  -0.1825  0.0269  0.8579  -6.0171   0.0000   0.3018


