xflr5 v6.47

 Calculated polar for: NACA24018_theta30_Ku4.5_Kl0.5_d0.31_delta11.03

 1 1 Reynolds number fixed          Mach number fixed         

 xtrf =   1.000 (top)        1.000 (bottom)
 Mach =   0.000     Re =     3.200 e 6     Ncrit =   5.000

  alpha     CL        CD       CDp       Cm    Top Xtr Bot Xtr   Cpmin    Chinge    XCp    
 ------- -------- --------- --------- -------- ------- ------- -------- --------- ---------
 -12.200   0.3810   0.04641   0.04332  -0.2075  0.7848  0.0615  -1.6672   0.0000   0.8182
 -12.000   0.4026   0.04726   0.04419  -0.2077  0.7831  0.0635  -1.5866   0.0000   0.7876
 -11.800   0.4290   0.04778   0.04472  -0.2086  0.7820  0.0655  -1.4984   0.0000   0.7559
 -11.600   0.4591   0.04820   0.04518  -0.2101  0.7809  0.0686  -1.4048   0.0000   0.7252
 -11.400   0.4886   0.04849   0.04548  -0.2115  0.7795  0.0709  -1.3183   0.0000   0.6986
 -10.600   0.5433   0.05322   0.04948  -0.2075  0.5987  0.0797  -1.1222   0.0000   0.6430
 -10.400   0.5583   0.05447   0.05060  -0.2068  0.5609  0.0830  -1.1022   0.0000   0.6305
 -10.200   0.5782   0.05531   0.05135  -0.2067  0.5368  0.0856  -1.0966   0.0000   0.6165
 -10.000   0.6019   0.05617   0.05213  -0.2072  0.5147  0.0902  -1.0968   0.0000   0.6024
  -9.800   0.6247   0.05692   0.05281  -0.2076  0.4943  0.0938  -1.0972   0.0000   0.5894
  -9.600   0.6498   0.05773   0.05355  -0.2083  0.4731  0.0988  -1.0998   0.0000   0.5768
  -9.400   0.6731   0.05842   0.05416  -0.2087  0.4526  0.1027  -1.1015   0.0000   0.5655
  -9.200   0.6989   0.05919   0.05488  -0.2095  0.4339  0.1096  -1.1056   0.0000   0.5545
  -9.000   0.7236   0.05987   0.05550  -0.2100  0.4191  0.1154  -1.1095   0.0000   0.5443
  -8.800   0.7492   0.06057   0.05616  -0.2107  0.4059  0.1225  -1.1143   0.0000   0.5347
  -8.600   0.7762   0.06131   0.05688  -0.2117  0.3934  0.1314  -1.1205   0.0000   0.5255
  -8.400   0.8026   0.06205   0.05759  -0.2125  0.3795  0.1407  -1.1260   0.0000   0.5170
  -8.200   0.8291   0.06281   0.05830  -0.2133  0.3649  0.1515  -1.1314   0.0000   0.5090
  -8.000   0.8576   0.06364   0.05911  -0.2145  0.3539  0.1645  -1.1390   0.0000   0.5012
  -7.800   0.8898   0.06468   0.06014  -0.2162  0.3428  0.1839  -1.1495   0.0000   0.4936
  -7.600   0.9215   0.06570   0.06116  -0.2179  0.3340  0.2040  -1.1605   0.0000   0.4866
  -7.400   0.9522   0.06668   0.06214  -0.2193  0.3259  0.2249  -1.1967   0.0000   0.4801
  -7.200   0.9892   0.06802   0.06353  -0.2218  0.3205  0.2590  -1.2387   0.0000   0.4735
  -7.000   1.0272   0.06946   0.06499  -0.2245  0.3135  0.2956  -1.2818   0.0000   0.4673
  -6.800   1.0693   0.07118   0.06675  -0.2277  0.3071  0.3385  -1.3289   0.0000   0.4613
  -6.600   1.0996   0.07222   0.06780  -0.2291  0.3026  0.3590  -1.3664   0.0000   0.4563
  -6.400   1.1268   0.07308   0.06864  -0.2299  0.2955  0.3754  -1.4013   0.0000   0.4516
  -6.200   1.1539   0.07393   0.06949  -0.2307  0.2891  0.3900  -1.4365   0.0000   0.4471
  -6.000   1.1777   0.07460   0.07015  -0.2309  0.2850  0.3993  -1.4690   0.0000   0.4430
  -5.800   1.2018   0.07529   0.07082  -0.2312  0.2804  0.4098  -1.5019   0.0000   0.4389
  -5.600   1.2262   0.07600   0.07151  -0.2316  0.2756  0.4193  -1.5357   0.0000   0.4350
  -5.400   1.2497   0.07666   0.07217  -0.2318  0.2724  0.4272  -1.5715   0.0000   0.4313
  -5.200   1.2712   0.07721   0.07270  -0.2316  0.2699  0.4334  -1.6056   0.0000   0.4277
  -5.000   1.2977   0.07808   0.07358  -0.2323  0.2658  0.4463  -1.6448   0.0000   0.4242
  -4.800   1.3178   0.07855   0.07401  -0.2320  0.2613  0.4520  -1.6780   0.0000   0.4209
  -4.600   1.3409   0.07921   0.07466  -0.2321  0.2566  0.4589  -1.7151   0.0000   0.4176
  -4.400   1.3615   0.07971   0.07516  -0.2318  0.2550  0.4637  -1.7506   0.0000   0.4144
  -4.200   1.3806   0.08011   0.07555  -0.2313  0.2529  0.4670  -1.7848   0.0000   0.4114
  -4.000   1.3990   0.08046   0.07589  -0.2306  0.2499  0.4691  -1.8184   0.0000   0.4084
  -3.800   1.4174   0.08083   0.07623  -0.2300  0.2457  0.4711  -1.8522   0.0000   0.4055
  -3.600   1.4378   0.08133   0.07670  -0.2297  0.2402  0.4748  -1.8881   0.0000   0.4027
  -3.400   1.4582   0.08184   0.07721  -0.2294  0.2379  0.4787  -1.9245   0.0000   0.3999
  -3.200   1.4778   0.08229   0.07765  -0.2289  0.2351  0.4823  -1.9600   0.0000   0.3972
  -3.000   1.4966   0.08269   0.07803  -0.2283  0.2321  0.4852  -1.9948   0.0000   0.3946
  -2.800   1.5147   0.08306   0.07837  -0.2277  0.2287  0.4874  -2.0323   0.0000   0.3920
  -2.600   1.5325   0.08340   0.07870  -0.2270  0.2250  0.4891  -2.0695   0.0000   0.3895
  -2.400   1.5525   0.08389   0.07918  -0.2266  0.2232  0.4929  -2.1095   0.0000   0.3870
  -2.200   1.5722   0.08437   0.07966  -0.2261  0.2210  0.4968  -2.1496   0.0000   0.3846
  -2.000   1.5908   0.08478   0.08006  -0.2255  0.2179  0.4999  -2.1884   0.0000   0.3822
  -1.800   1.6086   0.08515   0.08041  -0.2248  0.2145  0.5026  -2.2265   0.0000   0.3799
  -1.600   1.6260   0.08549   0.08073  -0.2240  0.2110  0.5049  -2.2645   0.0000   0.3776
  -1.400   1.6432   0.08580   0.08104  -0.2232  0.2086  0.5069  -2.3039   0.0000   0.3754
  -1.200   1.6602   0.08611   0.08134  -0.2224  0.2065  0.5084  -2.3432   0.0000   0.3731
  -1.000   1.6786   0.08654   0.08175  -0.2217  0.2030  0.5120  -2.3845   0.0000   0.3710
  -0.800   1.6970   0.08701   0.08220  -0.2211  0.1989  0.5159  -2.4261   0.0000   0.3689
  -0.600   1.7148   0.08741   0.08259  -0.2204  0.1952  0.5193  -2.4669   0.0000   0.3668
  -0.400   1.7321   0.08777   0.08294  -0.2196  0.1937  0.5221  -2.5074   0.0000   0.3647
  -0.200   1.7490   0.08810   0.08327  -0.2188  0.1918  0.5244  -2.5510   0.0000   0.3627
   0.000   1.7654   0.08842   0.08358  -0.2178  0.1887  0.5263  -2.5942   0.0000   0.3607
   0.200   1.7811   0.08875   0.08388  -0.2168  0.1845  0.5277  -2.6368   0.0000   0.3587
   0.400   1.7983   0.08916   0.08428  -0.2160  0.1806  0.5306  -2.6814   0.0000   0.3567
   0.600   1.8167   0.08964   0.08476  -0.2154  0.1788  0.5344  -2.7282   0.0000   0.3549
   0.800   1.8341   0.09007   0.08519  -0.2147  0.1768  0.5378  -2.7760   0.0000   0.3530
   1.000   1.8503   0.09044   0.08555  -0.2137  0.1739  0.5408  -2.8238   0.0000   0.3511
   1.200   1.8656   0.09081   0.08589  -0.2127  0.1697  0.5432  -2.8705   0.0000   0.3493
   1.400   1.8810   0.09114   0.08621  -0.2116  0.1665  0.5451  -2.9175   0.0000   0.3474
   1.600   1.8962   0.09146   0.08653  -0.2106  0.1638  0.5466  -2.9645   0.0000   0.3456
   1.800   1.9111   0.09182   0.08687  -0.2095  0.1604  0.5484  -3.0113   0.0000   0.3438
   2.000   1.9268   0.09229   0.08732  -0.2085  0.1564  0.5519  -3.0626   0.0000   0.3421
   2.200   1.9423   0.09276   0.08779  -0.2075  0.1536  0.5552  -3.1168   0.0000   0.3403
   2.400   1.9567   0.09324   0.08827  -0.2064  0.1509  0.5580  -3.1696   0.0000   0.3386
   2.600   1.9700   0.09373   0.08874  -0.2051  0.1470  0.5604  -3.2208   0.0000   0.3369
   2.800   1.9829   0.09421   0.08919  -0.2038  0.1424  0.5624  -3.2715   0.0000   0.3352
   3.000   1.9966   0.09463   0.08962  -0.2025  0.1402  0.5642  -3.3236   0.0000   0.3335
   3.200   2.0099   0.09505   0.09003  -0.2013  0.1375  0.5657  -3.3812   0.0000   0.3318
   3.400   2.0227   0.09549   0.09045  -0.2000  0.1341  0.5671  -3.4407   0.0000   0.3301
   3.600   2.0366   0.09600   0.09094  -0.1988  0.1303  0.5704  -3.5025   0.0000   0.3285
   3.800   2.0506   0.09651   0.09145  -0.1977  0.1268  0.5736  -3.5660   0.0000   0.3269
   4.000   2.0626   0.09708   0.09198  -0.1963  0.1210  0.5761  -3.6316   0.0000   0.3253
   4.200   2.0756   0.09755   0.09244  -0.1950  0.1176  0.5784  -3.6995   0.0000   0.3237
   4.400   2.0876   0.09805   0.09292  -0.1937  0.1137  0.5804  -3.7655   0.0000   0.3221
   4.600   2.0990   0.09857   0.09342  -0.1922  0.1097  0.5822  -3.8309   0.0000   0.3205
   4.800   2.1114   0.09901   0.09386  -0.1909  0.1078  0.5839  -3.9002   0.0000   0.3189
   5.000   2.1230   0.09950   0.09435  -0.1895  0.1050  0.5853  -3.9738   0.0000   0.3174
   5.200   2.1323   0.10019   0.09502  -0.1879  0.1012  0.5868  -4.0426   0.0000   0.3158
   5.400   2.1424   0.10091   0.09574  -0.1864  0.0984  0.5897  -4.1138   0.0000   0.3142
   5.600   2.1516   0.10166   0.09647  -0.1848  0.0943  0.5922  -4.1836   0.0000   0.3127
   5.800   2.1609   0.10235   0.09716  -0.1832  0.0906  0.5943  -4.2535   0.0000   0.3112
   6.000   2.1712   0.10295   0.09776  -0.1818  0.0881  0.5964  -4.3263   0.0000   0.3097
   6.200   2.1806   0.10361   0.09840  -0.1802  0.0852  0.5986  -4.4019   0.0000   0.3081
   6.400   2.1899   0.10426   0.09905  -0.1787  0.0823  0.6007  -4.4805   0.0000   0.3067
   6.600   2.1992   0.10489   0.09969  -0.1772  0.0795  0.6024  -4.5596   0.0000   0.3052
   6.800   2.2051   0.10584   0.10062  -0.1754  0.0758  0.6037  -4.6304   0.0000   0.3037
   7.000   2.2119   0.10673   0.10151  -0.1737  0.0733  0.6047  -4.7039   0.0000   0.3022
   7.200   2.2183   0.10761   0.10239  -0.1720  0.0702  0.6055  -4.7768   0.0000   0.3007
   7.400   2.2251   0.10844   0.10321  -0.1703  0.0673  0.6075  -4.8517   0.0000   0.2992
   7.600   2.2327   0.10922   0.10400  -0.1688  0.0647  0.6096  -4.9360   0.0000   0.2978
   7.800   2.2379   0.11023   0.10500  -0.1670  0.0617  0.6114  -5.0139   0.0000   0.2963
   8.000   2.2429   0.11129   0.10608  -0.1654  0.0597  0.6133  -5.0918   0.0000   0.2949
   8.200   2.2477   0.11235   0.10714  -0.1637  0.0571  0.6152  -5.1691   0.0000   0.2935
   8.400   2.2528   0.11335   0.10814  -0.1621  0.0547  0.6172  -5.2478   0.0000   0.2921
   8.600   2.2588   0.11428   0.10908  -0.1606  0.0527  0.6190  -5.3292   0.0000   0.2907
   8.800   2.2606   0.11563   0.11044  -0.1588  0.0506  0.6205  -5.3986   0.0000   0.2893
   9.000   2.2648   0.11671   0.11154  -0.1573  0.0490  0.6218  -5.4756   0.0000   0.2880
   9.200   2.2700   0.11769   0.11253  -0.1558  0.0474  0.6229  -5.5556   0.0000   0.2866
   9.400   2.2717   0.11904   0.11390  -0.1542  0.0457  0.6238  -5.6252   0.0000   0.2853
   9.600   2.2741   0.12030   0.11518  -0.1528  0.0441  0.6245  -5.6971   0.0000   0.2840
   9.800   2.2780   0.12138   0.11628  -0.1514  0.0429  0.6257  -5.7736   0.0000   0.2828
  10.000   2.2789   0.12278   0.11771  -0.1499  0.0415  0.6274  -5.8408   0.0000   0.2815
  10.200   2.2798   0.12417   0.11912  -0.1486  0.0401  0.6293  -5.9083   0.0000   0.2803
  10.400   2.2812   0.12554   0.12053  -0.1473  0.0391  0.6311  -5.9774   0.0000   0.2791
  10.600   2.2827   0.12689   0.12190  -0.1461  0.0380  0.6328  -6.0475   0.0000   0.2779
  10.800   2.2825   0.12840   0.12344  -0.1450  0.0368  0.6343  -6.1154   0.0000   0.2768
  11.000   2.2807   0.13010   0.12517  -0.1439  0.0355  0.6356  -6.1777   0.0000   0.2757
  11.200   2.2820   0.13145   0.12655  -0.1429  0.0345  0.6369  -6.2512   0.0000   0.2746
  11.400   2.2807   0.13311   0.12825  -0.1421  0.0335  0.6381  -6.3168   0.0000   0.2736
  11.600   2.2791   0.13479   0.12997  -0.1413  0.0324  0.6393  -6.3837   0.0000   0.2727
  11.800   2.2772   0.13653   0.13174  -0.1406  0.0313  0.6405  -6.4491   0.0000   0.2718
  12.000   2.2760   0.13821   0.13346  -0.1401  0.0305  0.6416  -6.5173   0.0000   0.2709
  12.200   2.2749   0.13986   0.13514  -0.1396  0.0294  0.6426  -6.5860   0.0000   0.2700
  12.400   2.2705   0.14192   0.13723  -0.1394  0.0284  0.6433  -6.6406   0.0000   0.2693
  12.600   2.2674   0.14381   0.13917  -0.1392  0.0275  0.6440  -6.7003   0.0000   0.2686
  12.800   2.2654   0.14546   0.14085  -0.1390  0.0267  0.6451  -6.7640   0.0000   0.2678
  13.000   2.2608   0.14742   0.14287  -0.1390  0.0260  0.6463  -6.8164   0.0000   0.2672
  13.200   2.2559   0.14943   0.14492  -0.1391  0.0252  0.6475  -6.8670   0.0000   0.2667
  13.400   2.2519   0.15133   0.14686  -0.1394  0.0245  0.6487  -6.9210   0.0000   0.2661
  13.600   2.2478   0.15327   0.14886  -0.1397  0.0240  0.6498  -6.9737   0.0000   0.2656
  13.800   2.2437   0.15518   0.15082  -0.1401  0.0235  0.6509  -7.0265   0.0000   0.2652
  14.000   2.2400   0.15705   0.15273  -0.1406  0.0230  0.6520  -7.0799   0.0000   0.2647
  14.200   2.2336   0.15925   0.15499  -0.1414  0.0224  0.6530  -7.1210   0.0000   0.2645
  14.400   2.2269   0.16150   0.15729  -0.1424  0.0219  0.6541  -7.1595   0.0000   0.2643
  14.600   2.2223   0.16349   0.15933  -0.1433  0.0214  0.6553  -7.2069   0.0000   0.2640
  14.800   2.2167   0.16561   0.16150  -0.1443  0.0210  0.6564  -7.2495   0.0000   0.2638
  15.000   2.2106   0.16781   0.16376  -0.1455  0.0206  0.6575  -7.2885   0.0000   0.2637
  15.200   2.2055   0.16987   0.16587  -0.1467  0.0201  0.6585  -7.3320   0.0000   0.2636
  15.400   2.1977   0.17229   0.16834  -0.1483  0.0196  0.6593  -7.3613   0.0000   0.2636
  15.600   2.1891   0.17482   0.17093  -0.1501  0.0191  0.6601  -7.3851   0.0000   0.2638
  15.800   2.1823   0.17711   0.17327  -0.1517  0.0187  0.6607  -7.4175   0.0000   0.2639
  16.000   2.1759   0.17937   0.17558  -0.1533  0.0184  0.6614  -7.4508   0.0000   0.2640
  16.200   2.1684   0.18178   0.17805  -0.1552  0.0181  0.6619  -7.4776   0.0000   0.2642
  16.400   2.1632   0.18388   0.18019  -0.1568  0.0178  0.6625  -7.5161   0.0000   0.2642
  16.600   2.1545   0.18646   0.18283  -0.1590  0.0175  0.6629  -7.5346   0.0000   0.2646
  16.800   2.1474   0.18876   0.18519  -0.1609  0.0172  0.6636  -7.5611   0.0000   0.2648
  17.000   2.1390   0.19121   0.18769  -0.1631  0.0168  0.6645  -7.5794   0.0000   0.2652
  17.200   2.1299   0.19379   0.19032  -0.1655  0.0165  0.6654  -7.5922   0.0000   0.2657
  17.400   2.1237   0.19594   0.19252  -0.1674  0.0162  0.6664  -7.6213   0.0000   0.2659
  17.600   2.1162   0.19830   0.19494  -0.1696  0.0160  0.6673  -7.6415   0.0000   0.2663
  17.800   2.1110   0.20032   0.19701  -0.1715  0.0158  0.6683  -7.6747   0.0000   0.2664
  18.000   2.1044   0.20253   0.19927  -0.1736  0.0156  0.6692  -7.6991   0.0000   0.2667
  18.200   2.0977   0.20477   0.20156  -0.1759  0.0153  0.6702  -7.7212   0.0000   0.2671
  18.400   2.0931   0.20668   0.20351  -0.1777  0.0150  0.6713  -7.7564   0.0000   0.2672
  18.600   2.0839   0.20929   0.20618  -0.1805  0.0148  0.6722  -7.7614   0.0000   0.2679
  18.800   2.0791   0.21123   0.20816  -0.1825  0.0145  0.6732  -7.7934   0.0000   0.2681
  19.000   2.0704   0.21378   0.21076  -0.1853  0.0142  0.6741  -7.7993   0.0000   0.2688
  19.200   2.0656   0.21574   0.21275  -0.1874  0.0139  0.6751  -7.8291   0.0000   0.2690
  19.400   2.0627   0.21739   0.21445  -0.1892  0.0138  0.6761  -7.8716   0.0000   0.2691
  19.600   2.0551   0.21977   0.21688  -0.1919  0.0136  0.6769  -7.8817   0.0000   0.2697
  19.800   2.0516   0.22150   0.21865  -0.1938  0.0133  0.6777  -7.9190   0.0000   0.2698
  20.000   2.0483   0.22322   0.22039  -0.1958  0.0131  0.6785  -7.9565   0.0000   0.2699
  20.200   2.0403   0.22563   0.22286  -0.1987  0.0128  0.6791  -7.9611   0.0000   0.2707
  20.400   2.0364   0.22742   0.22468  -0.2008  0.0125  0.6797  -7.9934   0.0000   0.2709
  20.600   2.0326   0.22917   0.22646  -0.2029  0.0122  0.6804  -8.0263   0.0000   0.2711
  20.800   2.0242   0.23167   0.22900  -0.2061  0.0120  0.6809  -8.0239   0.0000   0.2719
  21.000   2.0214   0.23328   0.23065  -0.2080  0.0118  0.6815  -8.0618   0.0000   0.2720
  21.200   2.0188   0.23474   0.23214  -0.2098  0.0116  0.6824  -8.1024   0.0000   0.2720
  21.400   2.0114   0.23696   0.23441  -0.2127  0.0114  0.6834  -8.1055   0.0000   0.2727
  21.600   2.0077   0.23856   0.23605  -0.2147  0.0112  0.6845  -8.1363   0.0000   0.2729
  21.800   2.0049   0.24003   0.23754  -0.2166  0.0110  0.6855  -8.1731   0.0000   0.2730
  22.000   1.9983   0.24211   0.23967  -0.2194  0.0108  0.6863  -8.1799   0.0000   0.2736
  22.200   1.9933   0.24409   0.24168  -0.2219  0.0106  0.6870  -8.1974   0.0000   0.2740


