xflr5 v6.47

 Calculated polar for: NACA24018_theta30_Ku4.5_Kl0.5_d0.17_delta4.56

 1 1 Reynolds number fixed          Mach number fixed         

 xtrf =   1.000 (top)        1.000 (bottom)
 Mach =   0.000     Re =     0.200 e 6     Ncrit =   5.000

  alpha     CL        CD       CDp       Cm    Top Xtr Bot Xtr   Cpmin    Chinge    XCp    
 ------- -------- --------- --------- -------- ------- ------- -------- --------- ---------
 -15.000  -0.8006   0.05580   0.04963  -0.0821  0.9767  0.0458  -5.3722   0.0000   0.1217
 -14.800  -0.8005   0.05442   0.04819  -0.0816  0.9760  0.0462  -5.3255   0.0000   0.1229
 -14.600  -0.7997   0.05314   0.04685  -0.0811  0.9753  0.0467  -5.2773   0.0000   0.1238
 -14.400  -0.7982   0.05202   0.04564  -0.0807  0.9747  0.0472  -5.2281   0.0000   0.1246
 -14.200  -0.7956   0.05121   0.04473  -0.0804  0.9742  0.0477  -5.1766   0.0000   0.1251
 -14.000  -0.8027   0.04944   0.04287  -0.0779  0.9736  0.0482  -5.1541   0.0000   0.1297
 -13.800  -0.8065   0.04795   0.04127  -0.0761  0.9720  0.0486  -5.1228   0.0000   0.1329
 -13.600  -0.8038   0.04701   0.04026  -0.0751  0.9705  0.0491  -5.0666   0.0000   0.1343
 -13.200  -0.8004   0.04552   0.03877  -0.0720  0.9679  0.0499  -4.9434   0.0000   0.1387
 -13.000  -0.7976   0.04476   0.03798  -0.0706  0.9652  0.0503  -4.8800   0.0000   0.1405
 -12.800  -0.7934   0.04429   0.03747  -0.0693  0.9636  0.0508  -4.8132   0.0000   0.1420
 -12.600  -0.7889   0.04326   0.03640  -0.0680  0.9598  0.0513  -4.7463   0.0000   0.1435
 -11.800  -0.7261   0.04025   0.03316  -0.0689  0.9414  0.0548  -4.3607   0.0000   0.1355
 -11.600  -0.7084   0.03945   0.03233  -0.0692  0.9361  0.0557  -4.2572   0.0000   0.1328
 -11.400  -0.6892   0.03878   0.03160  -0.0697  0.9324  0.0569  -4.1527   0.0000   0.1295
 -11.200  -0.6702   0.03809   0.03083  -0.0700  0.9287  0.0581  -4.0529   0.0000   0.1262
 -11.000  -0.6517   0.03740   0.03013  -0.0703  0.9249  0.0590  -3.9502   0.0000   0.1230
 -10.800  -0.6308   0.03682   0.02956  -0.0709  0.9217  0.0601  -3.8388   0.0000   0.1184
 -10.600  -0.6107   0.03620   0.02891  -0.0713  0.9181  0.0614  -3.7326   0.0000   0.1140
 -10.400  -0.5895   0.03562   0.02828  -0.0718  0.9149  0.0630  -3.6269   0.0000   0.1089
 -10.200  -0.5647   0.03516   0.02780  -0.0729  0.9131  0.0644  -3.5138   0.0000   0.1015
 -10.000  -0.5468   0.03445   0.02711  -0.0729  0.9080  0.0657  -3.4196   0.0000   0.0973
  -9.800  -0.5213   0.03400   0.02664  -0.0741  0.9060  0.0675  -3.3089   0.0000   0.0884
  -9.600  -0.5020   0.03336   0.02594  -0.0741  0.9010  0.0693  -3.2171   0.0000   0.0829
  -9.400  -0.4760   0.03285   0.02548  -0.0753  0.8987  0.0709  -3.1045   0.0000   0.0719
  -9.200  -0.4553   0.03226   0.02489  -0.0757  0.8938  0.0728  -3.0076   0.0000   0.0638
  -9.000  -0.4298   0.03178   0.02436  -0.0766  0.8909  0.0751  -2.9027   0.0000   0.0514
  -8.800  -0.4082   0.03119   0.02382  -0.0771  0.8858  0.0769  -2.8048   0.0000   0.0405
  -8.600  -0.3822   0.03071   0.02334  -0.0782  0.8823  0.0795  -2.7000   0.0000   0.0243
  -8.400  -0.3618   0.03018   0.02279  -0.0783  0.8758  0.0820  -2.6138   0.0000   0.0120
  -8.200  -0.3337   0.02968   0.02234  -0.0798  0.8724  0.0847  -2.5092   0.0000  -0.0114
  -8.000  -0.3132   0.02921   0.02186  -0.0799  0.8642  0.0877  -2.4238   0.0000  -0.0278
  -7.800  -0.2888   0.02876   0.02145  -0.0807  0.8575  0.0908  -2.3297   0.0000  -0.0532
  -7.600  -0.2597   0.02832   0.02101  -0.0822  0.8532  0.0948  -2.2273   0.0000  -0.0915
  -7.400  -0.2328   0.02792   0.02065  -0.0833  0.8466  0.0988  -2.1304   0.0000  -0.1347
  -7.200  -0.2022   0.02750   0.02022  -0.0849  0.8423  0.1039  -2.0282   0.0000  -0.1993
  -7.000  -0.1736   0.02713   0.01991  -0.0864  0.8353  0.1090  -1.9347   0.0000  -0.2803
  -6.400  -0.0800   0.02613   0.01900  -0.0917  0.8175  0.1313  -1.6496   0.0000  -0.9570
  -6.200  -0.0463   0.02582   0.01874  -0.0940  0.8116  0.1424  -1.5571   0.0000  -1.8796
  -5.800   0.0300   0.02508   0.01818  -0.1001  0.7996  0.1799  -1.3650   0.0000   3.7204
  -5.600   0.0736   0.02477   0.01806  -0.1045  0.7903  0.2199  -1.2659   0.0000   1.7195
  -5.400   0.1566   0.02441   0.01836  -0.1167  0.7840  0.3730  -1.1091   0.0000   1.0172
  -5.200   0.2101   0.02413   0.01826  -0.1224  0.7723  0.4406  -1.0001   0.0000   0.8474
  -5.000   0.2587   0.02360   0.01776  -0.1268  0.7601  0.4785  -0.9043   0.0000   0.7510
  -4.800   0.3069   0.02292   0.01705  -0.1310  0.7454  0.5064  -0.8143   0.0000   0.6851
  -4.600   0.3546   0.02219   0.01623  -0.1352  0.7262  0.5284  -0.8406   0.0000   0.6374
  -4.400   0.3970   0.02162   0.01554  -0.1384  0.7033  0.5461  -0.8801   0.0000   0.6034
  -4.200   0.4336   0.02130   0.01510  -0.1406  0.6792  0.5632  -0.9157   0.0000   0.5782
  -4.000   0.4659   0.02118   0.01484  -0.1422  0.6548  0.5795  -0.9484   0.0000   0.5582
  -3.800   0.4981   0.02126   0.01476  -0.1438  0.6300  0.5959  -0.9812   0.0000   0.5410
  -3.600   0.5097   0.02128   0.01474  -0.1414  0.6100  0.6053  -0.9996   0.0000   0.5292
  -3.200   0.5485   0.02161   0.01486  -0.1399  0.5700  0.6226  -1.0473   0.0000   0.5058
  -3.000   0.5669   0.02178   0.01493  -0.1391  0.5518  0.6275  -1.0705   0.0000   0.4956
  -2.800   0.5918   0.02203   0.01505  -0.1396  0.5332  0.6333  -1.0983   0.0000   0.4856
  -2.600   0.6121   0.02225   0.01517  -0.1392  0.5167  0.6383  -1.1237   0.0000   0.4766
  -2.400   0.6228   0.02239   0.01524  -0.1368  0.5033  0.6418  -1.1430   0.0000   0.4686
  -2.200   0.6380   0.02257   0.01536  -0.1354  0.4893  0.6460  -1.1663   0.0000   0.4607
  -2.000   0.6587   0.02281   0.01552  -0.1350  0.4754  0.6509  -1.1938   0.0000   0.4531
  -1.800   0.6884   0.02317   0.01575  -0.1366  0.4610  0.6571  -1.2284   0.0000   0.4461
  -1.600   0.6963   0.02329   0.01584  -0.1337  0.4504  0.6599  -1.2462   0.0000   0.4394
  -1.400   0.7077   0.02345   0.01596  -0.1315  0.4407  0.6633  -1.2668   0.0000   0.4329
  -1.200   0.7231   0.02366   0.01612  -0.1301  0.4304  0.6674  -1.2913   0.0000   0.4267
  -1.000   0.7450   0.02394   0.01633  -0.1301  0.4204  0.6722  -1.3215   0.0000   0.4210
  -0.800   0.7728   0.02429   0.01660  -0.1313  0.4097  0.6776  -1.3567   0.0000   0.4159
  -0.600   0.7807   0.02443   0.01671  -0.1284  0.4028  0.6801  -1.3757   0.0000   0.4102
  -0.400   0.7913   0.02458   0.01686  -0.1261  0.3956  0.6831  -1.3976   0.0000   0.4048
  -0.200   0.8045   0.02481   0.01704  -0.1244  0.3889  0.6865  -1.4222   0.0000   0.3997
   0.000   0.8240   0.02505   0.01727  -0.1238  0.3822  0.6908  -1.4521   0.0000   0.3951
   0.200   0.8587   0.02550   0.01763  -0.1264  0.3737  0.6971  -1.4954   0.0000   0.3917
   0.400   0.8652   0.02566   0.01777  -0.1233  0.3687  0.6991  -1.5145   0.0000   0.3868
   0.600   0.8746   0.02581   0.01793  -0.1208  0.3635  0.7015  -1.5359   0.0000   0.3821
   0.800   0.8861   0.02600   0.01813  -0.1187  0.3579  0.7042  -1.5592   0.0000   0.3777
   1.000   0.9006   0.02627   0.01836  -0.1173  0.3526  0.7074  -1.5853   0.0000   0.3737
   1.200   0.9211   0.02658   0.01864  -0.1171  0.3474  0.7114  -1.6181   0.0000   0.3702
   1.400   0.9546   0.02701   0.01905  -0.1194  0.3411  0.7171  -1.6634   0.0000   0.3679
   1.600   0.9616   0.02719   0.01922  -0.1165  0.3371  0.7189  -1.6850   0.0000   0.3637
   1.800   0.9700   0.02741   0.01943  -0.1139  0.3333  0.7209  -1.7081   0.0000   0.3597
   2.000   0.9810   0.02764   0.01966  -0.1118  0.3297  0.7231  -1.7337   0.0000   0.3560
   2.200   0.9948   0.02788   0.01994  -0.1103  0.3255  0.7259  -1.7620   0.0000   0.3526
   2.400   1.0119   0.02820   0.02025  -0.1094  0.3211  0.7293  -1.7936   0.0000   0.3496
   2.600   1.0383   0.02866   0.02067  -0.1104  0.3165  0.7341  -1.8349   0.0000   0.3475
   2.800   1.0578   0.02905   0.02102  -0.1101  0.3128  0.7373  -1.8707   0.0000   0.3450
   3.000   1.0665   0.02924   0.02127  -0.1076  0.3095  0.7389  -1.8959   0.0000   0.3415
   3.200   1.0761   0.02948   0.02155  -0.1053  0.3060  0.7407  -1.9228   0.0000   0.3382
   3.400   1.0868   0.02977   0.02185  -0.1033  0.3025  0.7429  -1.9511   0.0000   0.3351
   3.600   1.0996   0.03011   0.02218  -0.1017  0.2993  0.7455  -1.9816   0.0000   0.3323
   3.800   1.1159   0.03052   0.02255  -0.1008  0.2962  0.7485  -2.0160   0.0000   0.3299
   4.000   1.1406   0.03095   0.02304  -0.1015  0.2924  0.7524  -2.0591   0.0000   0.3282
   4.200   1.1631   0.03141   0.02353  -0.1018  0.2884  0.7558  -2.1003   0.0000   0.3265
   4.400   1.1699   0.03170   0.02384  -0.0992  0.2855  0.7573  -2.1255   0.0000   0.3234
   4.600   1.1777   0.03204   0.02419  -0.0968  0.2826  0.7591  -2.1532   0.0000   0.3205
   4.800   1.1874   0.03241   0.02455  -0.0947  0.2799  0.7611  -2.1835   0.0000   0.3179
   5.000   1.2000   0.03277   0.02496  -0.0932  0.2770  0.7634  -2.2168   0.0000   0.3155
   5.200   1.2150   0.03318   0.02543  -0.0922  0.2737  0.7662  -2.2531   0.0000   0.3134
   5.400   1.2338   0.03371   0.02599  -0.0920  0.2702  0.7695  -2.2941   0.0000   0.3117
   5.600   1.2609   0.03444   0.02671  -0.0934  0.2666  0.7734  -2.3473   0.0000   0.3109
   5.800   1.2668   0.03483   0.02710  -0.0908  0.2642  0.7746  -2.3758   0.0000   0.3082
   6.000   1.2743   0.03520   0.02752  -0.0885  0.2617  0.7762  -2.4062   0.0000   0.3057
   6.200   1.2830   0.03560   0.02800  -0.0864  0.2589  0.7780  -2.4380   0.0000   0.3033
   6.400   1.2927   0.03606   0.02852  -0.0846  0.2559  0.7801  -2.4718   0.0000   0.3011
   6.600   1.3040   0.03661   0.02910  -0.0832  0.2530  0.7825  -2.5087   0.0000   0.2991
   6.800   1.3175   0.03724   0.02974  -0.0822  0.2503  0.7850  -2.5489   0.0000   0.2974
   7.000   1.3345   0.03795   0.03043  -0.0820  0.2476  0.7876  -2.5949   0.0000   0.2960
   7.200   1.3579   0.03877   0.03135  -0.0828  0.2441  0.7906  -2.6500   0.0000   0.2952
   7.400   1.3626   0.03925   0.03190  -0.0803  0.2415  0.7919  -2.6795   0.0000   0.2928
   7.600   1.3679   0.03981   0.03252  -0.0780  0.2389  0.7935  -2.7100   0.0000   0.2906
   7.800   1.3743   0.04043   0.03317  -0.0760  0.2363  0.7952  -2.7422   0.0000   0.2885
   8.000   1.3820   0.04113   0.03388  -0.0743  0.2340  0.7970  -2.7792   0.0000   0.2866
   8.200   1.3921   0.04185   0.03465  -0.0730  0.2314  0.7989  -2.8210   0.0000   0.2849
   8.400   1.4033   0.04265   0.03554  -0.0720  0.2284  0.8010  -2.8645   0.0000   0.2834
   8.600   1.4158   0.04356   0.03653  -0.0713  0.2254  0.8033  -2.9102   0.0000   0.2821
   8.800   1.4308   0.04463   0.03764  -0.0712  0.2224  0.8058  -2.9623   0.0000   0.2811
   9.000   1.4396   0.04559   0.03861  -0.0701  0.2199  0.8075  -3.0062   0.0000   0.2796
   9.200   1.4434   0.04639   0.03946  -0.0680  0.2176  0.8088  -3.0414   0.0000   0.2777
   9.400   1.4486   0.04727   0.04045  -0.0663  0.2150  0.8102  -3.0798   0.0000   0.2760
   9.600   1.4539   0.04823   0.04151  -0.0647  0.2123  0.8117  -3.1187   0.0000   0.2743
   9.800   1.4592   0.04929   0.04262  -0.0633  0.2097  0.8134  -3.1605   0.0000   0.2728
  10.000   1.4653   0.05044   0.04380  -0.0621  0.2073  0.8152  -3.2043   0.0000   0.2714
  10.200   1.4727   0.05165   0.04502  -0.0613  0.2050  0.8171  -3.2509   0.0000   0.2702
  10.400   1.4818   0.05301   0.04651  -0.0608  0.2020  0.8191  -3.3009   0.0000   0.2692
  10.600   1.4919   0.05452   0.04813  -0.0607  0.1989  0.8208  -3.3538   0.0000   0.2684
  10.800   1.4995   0.05605   0.04972  -0.0604  0.1961  0.8222  -3.4037   0.0000   0.2675
  11.000   1.5005   0.05738   0.05108  -0.0589  0.1938  0.8232  -3.4439   0.0000   0.2661
  11.200   1.5017   0.05873   0.05247  -0.0576  0.1917  0.8243  -3.4846   0.0000   0.2647
  11.400   1.5031   0.06022   0.05409  -0.0564  0.1890  0.8256  -3.5243   0.0000   0.2634
  11.600   1.5043   0.06184   0.05580  -0.0554  0.1862  0.8270  -3.5637   0.0000   0.2623
  11.800   1.5056   0.06357   0.05761  -0.0547  0.1835  0.8285  -3.6035   0.0000   0.2613
  12.000   1.5078   0.06537   0.05945  -0.0542  0.1811  0.8300  -3.6452   0.0000   0.2604
  12.200   1.5105   0.06729   0.06142  -0.0540  0.1787  0.8315  -3.6877   0.0000   0.2597
  12.400   1.5131   0.06942   0.06369  -0.0540  0.1757  0.8328  -3.7287   0.0000   0.2592
  12.600   1.5158   0.07167   0.06604  -0.0543  0.1728  0.8340  -3.7699   0.0000   0.2588
  12.800   1.5187   0.07404   0.06846  -0.0548  0.1701  0.8352  -3.8124   0.0000   0.2585
  13.000   1.5197   0.07624   0.07068  -0.0550  0.1678  0.8362  -3.8543   0.0000   0.2580
  13.200   1.5158   0.07848   0.07306  -0.0546  0.1651  0.8371  -3.8829   0.0000   0.2574
  13.400   1.5118   0.08080   0.07550  -0.0544  0.1625  0.8380  -3.9109   0.0000   0.2568
  13.600   1.5080   0.08321   0.07797  -0.0544  0.1600  0.8391  -3.9390   0.0000   0.2564
  13.800   1.5049   0.08559   0.08039  -0.0545  0.1578  0.8402  -3.9694   0.0000   0.2560
  14.000   1.5019   0.08814   0.08302  -0.0550  0.1553  0.8413  -3.9980   0.0000   0.2558
  14.200   1.4975   0.09103   0.08605  -0.0558  0.1525  0.8424  -4.0212   0.0000   0.2559
  14.400   1.4937   0.09396   0.08906  -0.0568  0.1497  0.8433  -4.0471   0.0000   0.2560
  14.600   1.4913   0.09677   0.09191  -0.0578  0.1473  0.8443  -4.0775   0.0000   0.2562
  14.800   1.4888   0.09971   0.09492  -0.0591  0.1447  0.8452  -4.1057   0.0000   0.2566
  15.000   1.4838   0.10312   0.09847  -0.0609  0.1418  0.8460  -4.1235   0.0000   0.2573
  15.200   1.4802   0.10640   0.10182  -0.0627  0.1390  0.8468  -4.1460   0.0000   0.2580
  15.400   1.4798   0.10932   0.10477  -0.0644  0.1366  0.8477  -4.1789   0.0000   0.2585
  15.600   1.4757   0.11285   0.10841  -0.0667  0.1339  0.8486  -4.1962   0.0000   0.2595
  15.800   1.4668   0.11618   0.11184  -0.0682  0.1312  0.8492  -4.1993   0.0000   0.2602
  16.000   1.4601   0.11917   0.11489  -0.0696  0.1288  0.8500  -4.2113   0.0000   0.2608
  16.200   1.4575   0.12156   0.11728  -0.0707  0.1266  0.8509  -4.2390   0.0000   0.2610
  16.400   1.4473   0.12536   0.12121  -0.0730  0.1239  0.8517  -4.2326   0.0000   0.2623
  16.600   1.4393   0.12892   0.12487  -0.0753  0.1211  0.8525  -4.2334   0.0000   0.2635
  16.800   1.4366   0.13169   0.12766  -0.0770  0.1187  0.8534  -4.2560   0.0000   0.2643
  17.000   1.4329   0.13474   0.13077  -0.0792  0.1162  0.8542  -4.2721   0.0000   0.2652
  17.200   1.4232   0.13885   0.13499  -0.0823  0.1133  0.8549  -4.2602   0.0000   0.2671
  17.400   1.4204   0.14192   0.13810  -0.0846  0.1106  0.8556  -4.2788   0.0000   0.2682
  17.600   1.4220   0.14437   0.14055  -0.0866  0.1083  0.8565  -4.3162   0.0000   0.2689
  17.800   1.4111   0.14883   0.14515  -0.0903  0.1054  0.8570  -4.2936   0.0000   0.2713
  18.000   1.4095   0.15190   0.14826  -0.0929  0.1028  0.8578  -4.3130   0.0000   0.2726
  18.200   1.4152   0.15388   0.15021  -0.0947  0.1006  0.8587  -4.3678   0.0000   0.2729
  18.400   1.4038   0.15865   0.15513  -0.0990  0.0977  0.8593  -4.3366   0.0000   0.2758
  18.600   1.4029   0.16170   0.15821  -0.1018  0.0952  0.8602  -4.3576   0.0000   0.2771
  18.800   1.4073   0.16282   0.15930  -0.1023  0.0934  0.8611  -4.4152   0.0000   0.2767
  19.000   1.3935   0.16750   0.16411  -0.1063  0.0906  0.8617  -4.3697   0.0000   0.2796
  19.200   1.3898   0.17037   0.16703  -0.1087  0.0883  0.8625  -4.3782   0.0000   0.2808
  19.400   1.3964   0.17147   0.16809  -0.1095  0.0866  0.8635  -4.4435   0.0000   0.2804
  19.600   1.3858   0.17584   0.17258  -0.1135  0.0839  0.8641  -4.4074   0.0000   0.2832
  19.800   1.3822   0.17901   0.17580  -0.1165  0.0815  0.8648  -4.4100   0.0000   0.2849
  20.000   1.3916   0.17997   0.17672  -0.1175  0.0798  0.8658  -4.4870   0.0000   0.2843
  20.200   1.3807   0.18460   0.18146  -0.1220  0.0772  0.8662  -4.4409   0.0000   0.2875
  20.400   1.3800   0.18745   0.18436  -0.1248  0.0750  0.8669  -4.4549   0.0000   0.2889
  20.600   1.3914   0.18819   0.18506  -0.1258  0.0735  0.8679  -4.5431   0.0000   0.2882
  20.800   1.3784   0.19336   0.19035  -0.1309  0.0707  0.8682  -4.4749   0.0000   0.2920
  21.000   1.3809   0.19579   0.19280  -0.1336  0.0688  0.8690  -4.5067   0.0000   0.2931
  21.200   1.3942   0.19639   0.19336  -0.1346  0.0675  0.8699  -4.6081   0.0000   0.2921
  21.400   1.3790   0.20212   0.19923  -0.1404  0.0648  0.8702  -4.5162   0.0000   0.2967
  21.600   1.3817   0.20404   0.20117  -0.1424  0.0631  0.8709  -4.5529   0.0000   0.2972
  21.800   1.3907   0.20431   0.20140  -0.1426  0.0621  0.8719  -4.6409   0.0000   0.2960
  22.000   1.3731   0.21025   0.20748  -0.1486  0.0594  0.8722  -4.5250   0.0000   0.3010
  22.200   1.3753   0.21206   0.20931  -0.1505  0.0580  0.8731  -4.5586   0.0000   0.3014
  22.400   1.3854   0.21236   0.20958  -0.1509  0.0571  0.8743  -4.6523   0.0000   0.3002
  22.600   1.3657   0.21896   0.21632  -0.1577  0.0543  0.8745  -4.5052   0.0000   0.3060
  22.800   1.3711   0.22041   0.21777  -0.1594  0.0531  0.8754  -4.5602   0.0000   0.3060
  23.000   1.3831   0.22062   0.21796  -0.1600  0.0523  0.8765  -4.6680   0.0000   0.3047
  23.200   1.3575   0.22871   0.22620  -0.1683  0.0491  0.8764  -4.4485   0.0000   0.3123
  23.400   1.3674   0.22939   0.22688  -0.1695  0.0483  0.8773  -4.5413   0.0000   0.3115
  23.600   1.3811   0.22939   0.22685  -0.1700  0.0477  0.8782  -4.6669   0.0000   0.3098
  24.000   1.3468   0.24267   0.24032  -0.1839  0.0423  0.8785  -4.3218   0.0000   0.3219
  24.200   1.3715   0.24022   0.23783  -0.1824  0.0429  0.8797  -4.5657   0.0000   0.3173


