xflr5 v6.47

 Calculated polar for: NACA24018_theta30_Ku4.5_Kl0.5_d0.24_delta7.31

 1 1 Reynolds number fixed          Mach number fixed         

 xtrf =   1.000 (top)        1.000 (bottom)
 Mach =   0.000     Re =     2.400 e 6     Ncrit =   5.000

  alpha     CL        CD       CDp       Cm    Top Xtr Bot Xtr   Cpmin    Chinge    XCp    
 ------- -------- --------- --------- -------- ------- ------- -------- --------- ---------
 -15.000  -0.5626   0.02961   0.02552  -0.1393  0.8548  0.0323  -5.0100   0.0000  -0.0295
 -14.800  -0.5368   0.02957   0.02549  -0.1405  0.8547  0.0327  -4.8628   0.0000  -0.0443
 -14.600  -0.5099   0.02954   0.02546  -0.1420  0.8547  0.0334  -4.7189   0.0000  -0.0617
 -14.400  -0.4833   0.02954   0.02548  -0.1433  0.8547  0.0341  -4.5768   0.0000  -0.0807
 -14.200  -0.4569   0.02958   0.02553  -0.1446  0.8547  0.0348  -4.4368   0.0000  -0.1015
 -14.000  -0.4308   0.02965   0.02561  -0.1458  0.8547  0.0355  -4.2989   0.0000  -0.1245
 -13.800  -0.4046   0.02974   0.02570  -0.1469  0.8547  0.0361  -4.1624   0.0000  -0.1505
 -13.600  -0.3773   0.02980   0.02576  -0.1482  0.8547  0.0365  -4.0245   0.0000  -0.1817
 -13.400  -0.3482   0.02984   0.02582  -0.1499  0.8547  0.0374  -3.8834   0.0000  -0.2213
 -13.200  -0.3648   0.03132   0.02732  -0.1444  0.8511  0.0376  -3.8738   0.0000  -0.1844
 -13.000  -0.3337   0.03121   0.02723  -0.1463  0.8500  0.0385  -3.7281   0.0000  -0.2292
 -12.800  -0.2978   0.03092   0.02694  -0.1488  0.8490  0.0395  -3.5711   0.0000  -0.2939
 -12.600  -0.2597   0.03052   0.02655  -0.1517  0.8483  0.0404  -3.4138   0.0000  -0.3829
  -9.600   0.2492   0.02863   0.02478  -0.1843  0.7821  0.0655  -1.6040   0.0000   1.0197
  -9.400   0.2409   0.02999   0.02559  -0.1794  0.6681  0.0663  -1.5809   0.0000   1.0244
  -9.200   0.2595   0.03061   0.02609  -0.1791  0.6360  0.0687  -1.5120   0.0000   0.9664
  -9.000   0.2818   0.03104   0.02643  -0.1793  0.6100  0.0713  -1.4377   0.0000   0.9095
  -8.800   0.3067   0.03144   0.02675  -0.1800  0.5848  0.0749  -1.3603   0.0000   0.8573
  -8.600   0.3315   0.03177   0.02698  -0.1806  0.5605  0.0779  -1.2841   0.0000   0.8129
  -8.400   0.3579   0.03206   0.02720  -0.1815  0.5366  0.0815  -1.2065   0.0000   0.7730
  -8.200   0.3844   0.03230   0.02736  -0.1824  0.5136  0.0852  -1.1301   0.0000   0.7385
  -8.000   0.4119   0.03259   0.02758  -0.1834  0.4933  0.0902  -1.0532   0.0000   0.7078
  -7.800   0.4378   0.03286   0.02779  -0.1842  0.4738  0.0945  -0.9868   0.0000   0.6817
  -7.600   0.4653   0.03317   0.02805  -0.1853  0.4571  0.0999  -0.9196   0.0000   0.6579
  -7.400   0.4923   0.03347   0.02830  -0.1862  0.4422  0.1055  -0.8540   0.0000   0.6368
  -7.200   0.5196   0.03377   0.02856  -0.1872  0.4272  0.1124  -0.8532   0.0000   0.6179
  -7.000   0.5481   0.03411   0.02887  -0.1884  0.4129  0.1208  -0.8814   0.0000   0.6004
  -6.800   0.5770   0.03445   0.02919  -0.1897  0.3991  0.1308  -0.9111   0.0000   0.5846
  -6.600   0.6060   0.03481   0.02951  -0.1910  0.3863  0.1417  -0.9411   0.0000   0.5702
  -6.400   0.6370   0.03523   0.02994  -0.1926  0.3765  0.1573  -0.9727   0.0000   0.5567
  -6.200   0.6685   0.03567   0.03037  -0.1944  0.3664  0.1756  -1.0049   0.0000   0.5444
  -6.000   0.7018   0.03617   0.03089  -0.1964  0.3564  0.1973  -1.0386   0.0000   0.5329
  -5.800   0.7361   0.03671   0.03145  -0.1987  0.3466  0.2249  -1.0733   0.0000   0.5224
  -5.400   0.8307   0.03864   0.03355  -0.2079  0.3265  0.3393  -1.1655   0.0000   0.5016
  -5.200   0.8651   0.03925   0.03417  -0.2101  0.3185  0.3687  -1.2044   0.0000   0.4937
  -5.000   0.8977   0.03981   0.03476  -0.2120  0.3129  0.3906  -1.2422   0.0000   0.4865
  -4.800   0.9280   0.04032   0.03528  -0.2134  0.3088  0.4080  -1.2785   0.0000   0.4799
  -4.600   0.9566   0.04077   0.03573  -0.2145  0.3039  0.4213  -1.3136   0.0000   0.4738
  -4.400   0.9830   0.04115   0.03608  -0.2152  0.2981  0.4305  -1.3471   0.0000   0.4681
  -4.200   1.0098   0.04156   0.03650  -0.2159  0.2945  0.4436  -1.3812   0.0000   0.4627
  -4.000   1.0402   0.04210   0.03705  -0.2173  0.2899  0.4621  -1.4185   0.0000   0.4574
  -3.800   1.0708   0.04265   0.03759  -0.2188  0.2846  0.4802  -1.4576   0.0000   0.4524
  -3.600   1.0995   0.04315   0.03808  -0.2199  0.2798  0.4919  -1.4956   0.0000   0.4477
  -3.400   1.1223   0.04345   0.03838  -0.2199  0.2774  0.4966  -1.5286   0.0000   0.4434
  -3.200   1.1439   0.04371   0.03862  -0.2197  0.2740  0.4997  -1.5607   0.0000   0.4392
  -3.000   1.1683   0.04407   0.03896  -0.2200  0.2694  0.5045  -1.5955   0.0000   0.4351
  -2.800   1.1921   0.04441   0.03927  -0.2202  0.2642  0.5091  -1.6300   0.0000   0.4312
  -2.600   1.2146   0.04472   0.03958  -0.2202  0.2617  0.5130  -1.6660   0.0000   0.4274
  -2.400   1.2363   0.04501   0.03985  -0.2200  0.2589  0.5167  -1.7019   0.0000   0.4238
  -2.200   1.2577   0.04529   0.04012  -0.2198  0.2559  0.5199  -1.7378   0.0000   0.4203
  -2.000   1.2814   0.04565   0.04047  -0.2199  0.2524  0.5245  -1.7760   0.0000   0.4169
  -1.800   1.3038   0.04598   0.04077  -0.2199  0.2483  0.5285  -1.8131   0.0000   0.4136
  -1.600   1.3254   0.04628   0.04107  -0.2197  0.2460  0.5321  -1.8497   0.0000   0.4104
  -1.400   1.3463   0.04656   0.04134  -0.2194  0.2434  0.5353  -1.8858   0.0000   0.4073
  -1.200   1.3666   0.04682   0.04159  -0.2189  0.2403  0.5378  -1.9227   0.0000   0.4042
  -1.000   1.3886   0.04715   0.04190  -0.2188  0.2370  0.5414  -1.9619   0.0000   0.4013
  -0.800   1.4109   0.04750   0.04224  -0.2187  0.2329  0.5457  -2.0016   0.0000   0.3985
  -0.600   1.4325   0.04783   0.04257  -0.2185  0.2307  0.5500  -2.0408   0.0000   0.3957
  -0.400   1.4531   0.04813   0.04286  -0.2182  0.2283  0.5537  -2.0804   0.0000   0.3930
  -0.200   1.4730   0.04841   0.04313  -0.2177  0.2253  0.5565  -2.1198   0.0000   0.3903
   0.000   1.4936   0.04873   0.04343  -0.2173  0.2214  0.5596  -2.1602   0.0000   0.3877
   0.200   1.5155   0.04911   0.04379  -0.2172  0.2170  0.5638  -2.2022   0.0000   0.3852
   0.400   1.5368   0.04947   0.04415  -0.2169  0.2146  0.5680  -2.2456   0.0000   0.3827
   0.600   1.5571   0.04980   0.04447  -0.2165  0.2118  0.5716  -2.2898   0.0000   0.3803
   0.800   1.5766   0.05010   0.04477  -0.2159  0.2090  0.5745  -2.3333   0.0000   0.3779
   1.000   1.5954   0.05039   0.04504  -0.2152  0.2060  0.5766  -2.3762   0.0000   0.3756
   1.200   1.6163   0.05078   0.04542  -0.2149  0.2029  0.5802  -2.4219   0.0000   0.3733
   1.400   1.6370   0.05115   0.04580  -0.2145  0.2015  0.5838  -2.4676   0.0000   0.3711
   1.600   1.6569   0.05150   0.04615  -0.2141  0.1996  0.5874  -2.5126   0.0000   0.3689
   1.800   1.6762   0.05183   0.04649  -0.2135  0.1969  0.5910  -2.5570   0.0000   0.3668
   2.000   1.6945   0.05217   0.04680  -0.2127  0.1934  0.5939  -2.6004   0.0000   0.3647
   2.200   1.7122   0.05249   0.04709  -0.2119  0.1891  0.5960  -2.6433   0.0000   0.3625
   2.400   1.7321   0.05288   0.04749  -0.2114  0.1868  0.5995  -2.6891   0.0000   0.3605
   2.600   1.7514   0.05327   0.04789  -0.2108  0.1839  0.6031  -2.7366   0.0000   0.3585
   2.800   1.7698   0.05367   0.04827  -0.2101  0.1805  0.6066  -2.7867   0.0000   0.3565
   3.000   1.7874   0.05406   0.04864  -0.2092  0.1763  0.6098  -2.8358   0.0000   0.3546
   3.200   1.8052   0.05441   0.04900  -0.2084  0.1740  0.6124  -2.8864   0.0000   0.3526
   3.400   1.8224   0.05478   0.04936  -0.2075  0.1711  0.6144  -2.9394   0.0000   0.3507
   3.600   1.8397   0.05520   0.04977  -0.2066  0.1678  0.6171  -2.9930   0.0000   0.3488
   3.800   1.8572   0.05570   0.05025  -0.2057  0.1638  0.6205  -3.0473   0.0000   0.3469
   4.000   1.8745   0.05617   0.05074  -0.2049  0.1618  0.6238  -3.1016   0.0000   0.3451
   4.200   1.8910   0.05666   0.05123  -0.2039  0.1594  0.6266  -3.1565   0.0000   0.3433
   4.400   1.9064   0.05717   0.05173  -0.2027  0.1559  0.6290  -3.2125   0.0000   0.3414
   4.600   1.9212   0.05771   0.05225  -0.2014  0.1517  0.6314  -3.2677   0.0000   0.3396
   4.800   1.9369   0.05818   0.05272  -0.2003  0.1492  0.6335  -3.3246   0.0000   0.3378
   5.000   1.9521   0.05868   0.05322  -0.1992  0.1459  0.6358  -3.3816   0.0000   0.3360
   5.200   1.9669   0.05926   0.05379  -0.1979  0.1419  0.6386  -3.4400   0.0000   0.3343
   5.400   1.9821   0.05980   0.05432  -0.1968  0.1387  0.6412  -3.5029   0.0000   0.3326
   5.600   1.9966   0.06034   0.05486  -0.1955  0.1351  0.6436  -3.5696   0.0000   0.3308
   5.800   2.0099   0.06096   0.05546  -0.1941  0.1307  0.6459  -3.6372   0.0000   0.3291
   6.000   2.0240   0.06153   0.05603  -0.1928  0.1278  0.6483  -3.7093   0.0000   0.3274
   6.200   2.0380   0.06210   0.05661  -0.1915  0.1249  0.6506  -3.7816   0.0000   0.3257
   6.400   2.0500   0.06283   0.05732  -0.1899  0.1215  0.6523  -3.8503   0.0000   0.3240
   6.600   2.0613   0.06360   0.05809  -0.1883  0.1182  0.6537  -3.9182   0.0000   0.3223
   6.800   2.0736   0.06431   0.05882  -0.1867  0.1156  0.6561  -3.9884   0.0000   0.3206
   7.000   2.0847   0.06511   0.05960  -0.1851  0.1118  0.6582  -4.0610   0.0000   0.3190
   7.200   2.0958   0.06590   0.06039  -0.1835  0.1081  0.6605  -4.1368   0.0000   0.3173
   7.400   2.1068   0.06669   0.06118  -0.1818  0.1042  0.6628  -4.2130   0.0000   0.3157
   7.600   2.1162   0.06760   0.06207  -0.1800  0.0999  0.6650  -4.2859   0.0000   0.3140
   7.800   2.1265   0.06846   0.06294  -0.1783  0.0975  0.6670  -4.3615   0.0000   0.3124
   8.000   2.1351   0.06946   0.06396  -0.1765  0.0948  0.6688  -4.4410   0.0000   0.3108
   8.200   2.1432   0.07052   0.06501  -0.1746  0.0915  0.6703  -4.5198   0.0000   0.3091
   8.400   2.1534   0.07141   0.06591  -0.1730  0.0890  0.6718  -4.6043   0.0000   0.3076
   8.600   2.1606   0.07253   0.06702  -0.1711  0.0849  0.6731  -4.6820   0.0000   0.3059
   8.800   2.1668   0.07372   0.06822  -0.1690  0.0816  0.6752  -4.7571   0.0000   0.3043
   9.000   2.1718   0.07502   0.06952  -0.1669  0.0781  0.6771  -4.8297   0.0000   0.3027
   9.200   2.1781   0.07620   0.07071  -0.1650  0.0753  0.6788  -4.9057   0.0000   0.3011
   9.400   2.1850   0.07732   0.07185  -0.1632  0.0728  0.6804  -4.9838   0.0000   0.2996
   9.600   2.1883   0.07880   0.07334  -0.1610  0.0704  0.6819  -5.0526   0.0000   0.2980
   9.800   2.1940   0.08006   0.07462  -0.1592  0.0684  0.6837  -5.1281   0.0000   0.2965
  10.000   2.2000   0.08130   0.07589  -0.1575  0.0663  0.6854  -5.2047   0.0000   0.2950
  10.200   2.2023   0.08294   0.07755  -0.1554  0.0641  0.6870  -5.2715   0.0000   0.2935
  10.400   2.2068   0.08438   0.07900  -0.1537  0.0622  0.6884  -5.3462   0.0000   0.2921
  10.600   2.2105   0.08592   0.08057  -0.1519  0.0605  0.6897  -5.4247   0.0000   0.2907
  10.800   2.2131   0.08757   0.08225  -0.1502  0.0585  0.6907  -5.5001   0.0000   0.2893
  11.000   2.2145   0.08940   0.08410  -0.1485  0.0567  0.6915  -5.5717   0.0000   0.2879
  11.200   2.2163   0.09106   0.08580  -0.1468  0.0549  0.6927  -5.6446   0.0000   0.2866
  11.400   2.2158   0.09298   0.08775  -0.1451  0.0528  0.6942  -5.7099   0.0000   0.2853
  11.600   2.2149   0.09499   0.08979  -0.1436  0.0509  0.6956  -5.7738   0.0000   0.2841
  11.800   2.2145   0.09695   0.09179  -0.1421  0.0492  0.6971  -5.8392   0.0000   0.2829
  12.000   2.2127   0.09908   0.09395  -0.1408  0.0475  0.6986  -5.8998   0.0000   0.2817
  12.200   2.2118   0.10112   0.09603  -0.1396  0.0461  0.7000  -5.9630   0.0000   0.2806
  12.400   2.2109   0.10320   0.09816  -0.1385  0.0449  0.7013  -6.0263   0.0000   0.2796
  12.600   2.2087   0.10545   0.10045  -0.1376  0.0434  0.7025  -6.0847   0.0000   0.2786
  12.800   2.2053   0.10786   0.10290  -0.1368  0.0419  0.7036  -6.1382   0.0000   0.2777
  13.000   2.2041   0.11002   0.10511  -0.1362  0.0408  0.7048  -6.1994   0.0000   0.2769
  13.200   2.2012   0.11243   0.10756  -0.1357  0.0396  0.7058  -6.2538   0.0000   0.2761
  13.400   2.1972   0.11498   0.11016  -0.1354  0.0384  0.7068  -6.3036   0.0000   0.2754
  13.600   2.1936   0.11748   0.11271  -0.1352  0.0374  0.7077  -6.3545   0.0000   0.2748
  13.800   2.1919   0.11979   0.11506  -0.1351  0.0366  0.7086  -6.4118   0.0000   0.2741
  14.000   2.1884   0.12234   0.11766  -0.1352  0.0358  0.7095  -6.4619   0.0000   0.2736
  14.200   2.1841   0.12503   0.12040  -0.1355  0.0350  0.7102  -6.5079   0.0000   0.2732
  14.400   2.1779   0.12774   0.12317  -0.1359  0.0342  0.7114  -6.5460   0.0000   0.2729
  14.600   2.1726   0.13034   0.12583  -0.1363  0.0335  0.7126  -6.5865   0.0000   0.2725
  14.800   2.1685   0.13279   0.12834  -0.1368  0.0329  0.7138  -6.6315   0.0000   0.2722
  15.000   2.1626   0.13552   0.13113  -0.1375  0.0322  0.7148  -6.6682   0.0000   0.2720
  15.200   2.1556   0.13841   0.13408  -0.1385  0.0315  0.7157  -6.6994   0.0000   0.2719
  15.400   2.1476   0.14144   0.13718  -0.1397  0.0307  0.7166  -6.7303   0.0000   0.2720
  15.600   2.1391   0.14455   0.14035  -0.1411  0.0300  0.7174  -6.7582   0.0000   0.2721
  15.800   2.1338   0.14724   0.14309  -0.1423  0.0295  0.7185  -6.7996   0.0000   0.2721
  16.000   2.1270   0.15015   0.14607  -0.1437  0.0289  0.7195  -6.8330   0.0000   0.2723
  16.200   2.1188   0.15328   0.14926  -0.1454  0.0283  0.7205  -6.8591   0.0000   0.2726
  16.400   2.1101   0.15651   0.15255  -0.1474  0.0277  0.7216  -6.8811   0.0000   0.2730
  16.600   2.1014   0.15974   0.15585  -0.1494  0.0271  0.7225  -6.9017   0.0000   0.2734
  16.800   2.0942   0.16277   0.15893  -0.1513  0.0266  0.7235  -6.9288   0.0000   0.2738
  17.000   2.0866   0.16589   0.16212  -0.1535  0.0262  0.7244  -6.9526   0.0000   0.2743
  17.200   2.0792   0.16898   0.16527  -0.1557  0.0257  0.7252  -6.9763   0.0000   0.2748
  17.400   2.0734   0.17182   0.16816  -0.1577  0.0253  0.7260  -7.0074   0.0000   0.2752
  17.600   2.0644   0.17516   0.17156  -0.1603  0.0248  0.7266  -7.0202   0.0000   0.2760
  17.800   2.0559   0.17841   0.17486  -0.1628  0.0243  0.7273  -7.0345   0.0000   0.2767
  18.000   2.0486   0.18146   0.17797  -0.1653  0.0238  0.7278  -7.0542   0.0000   0.2773
  18.200   2.0403   0.18468   0.18124  -0.1680  0.0234  0.7283  -7.0669   0.0000   0.2781
  18.400   2.0356   0.18720   0.18382  -0.1700  0.0230  0.7291  -7.1003   0.0000   0.2785
  18.600   2.0271   0.19029   0.18697  -0.1726  0.0226  0.7300  -7.1104   0.0000   0.2793
  18.800   2.0222   0.19279   0.18952  -0.1747  0.0222  0.7309  -7.1405   0.0000   0.2797
  19.000   2.0135   0.19591   0.19269  -0.1775  0.0218  0.7318  -7.1476   0.0000   0.2806
  19.200   2.0079   0.19852   0.19534  -0.1798  0.0213  0.7328  -7.1716   0.0000   0.2812
  19.400   1.9996   0.20158   0.19846  -0.1827  0.0209  0.7337  -7.1783   0.0000   0.2821
  19.600   1.9948   0.20406   0.20098  -0.1849  0.0205  0.7347  -7.2054   0.0000   0.2826
  19.800   1.9917   0.20626   0.20322  -0.1869  0.0202  0.7357  -7.2425   0.0000   0.2829
  20.000   1.9842   0.20921   0.20623  -0.1898  0.0198  0.7365  -7.2506   0.0000   0.2838
  20.200   1.9809   0.21146   0.20851  -0.1920  0.0193  0.7375  -7.2846   0.0000   0.2842
  20.400   1.9742   0.21428   0.21138  -0.1948  0.0189  0.7383  -7.2957   0.0000   0.2851
  20.600   1.9690   0.21687   0.21400  -0.1975  0.0185  0.7391  -7.3151   0.0000   0.2858
  20.800   1.9656   0.21915   0.21632  -0.1998  0.0181  0.7399  -7.3456   0.0000   0.2863
  21.000   1.9597   0.22186   0.21908  -0.2027  0.0178  0.7407  -7.3585   0.0000   0.2872
  21.200   1.9571   0.22400   0.22125  -0.2049  0.0174  0.7416  -7.3933   0.0000   0.2875
  21.400   1.9549   0.22606   0.22335  -0.2071  0.0171  0.7424  -7.4302   0.0000   0.2879
  21.600   1.9487   0.22882   0.22616  -0.2101  0.0167  0.7431  -7.4376   0.0000   0.2889
  21.800   1.9457   0.23103   0.22839  -0.2126  0.0164  0.7439  -7.4668   0.0000   0.2894
  22.000   1.9431   0.23313   0.23052  -0.2149  0.0160  0.7447  -7.4992   0.0000   0.2898
  22.200   1.9366   0.23593   0.23337  -0.2181  0.0157  0.7454  -7.5006   0.0000   0.2909
  22.400   1.9350   0.23786   0.23533  -0.2203  0.0155  0.7460  -7.5387   0.0000   0.2912
  22.600   1.9337   0.23965   0.23715  -0.2223  0.0153  0.7468  -7.5828   0.0000   0.2914
  22.800   1.9284   0.24208   0.23963  -0.2252  0.0150  0.7477  -7.5968   0.0000   0.2923
  23.000   1.9252   0.24412   0.24171  -0.2276  0.0147  0.7485  -7.6267   0.0000   0.2928
  23.200   1.9231   0.24595   0.24356  -0.2297  0.0144  0.7493  -7.6650   0.0000   0.2931
  23.400   1.9186   0.24823   0.24588  -0.2325  0.0141  0.7500  -7.6823   0.0000   0.2938
  23.600   1.9135   0.25060   0.24829  -0.2354  0.0138  0.7507  -7.6936   0.0000   0.2947
  23.800   1.9114   0.25239   0.25010  -0.2376  0.0135  0.7514  -7.7306   0.0000   0.2950
  24.000   1.9100   0.25405   0.25180  -0.2396  0.0133  0.7522  -7.7726   0.0000   0.2952
  24.200   1.9048   0.25643   0.25423  -0.2427  0.0130  0.7529  -7.7796   0.0000   0.2961
  24.400   1.9031   0.25815   0.25597  -0.2448  0.0128  0.7537  -7.8176   0.0000   0.2964
  24.600   1.9013   0.25985   0.25770  -0.2470  0.0125  0.7545  -7.8551   0.0000   0.2967
  24.800   1.8964   0.26218   0.26006  -0.2500  0.0122  0.7553  -7.8618   0.0000   0.2976
  25.000   1.8933   0.26414   0.26206  -0.2526  0.0120  0.7562  -7.8847   0.0000   0.2982


