xflr5 v6.47

 Calculated polar for: NACA24018_theta30_Ku4.5_Kl0.5_d0.17_delta4.56

 1 1 Reynolds number fixed          Mach number fixed         

 xtrf =   1.000 (top)        1.000 (bottom)
 Mach =   0.000     Re =     1.400 e 6     Ncrit =   5.000

  alpha     CL        CD       CDp       Cm    Top Xtr Bot Xtr   Cpmin    Chinge    XCp    
 ------- -------- --------- --------- -------- ------- ------- -------- --------- ---------
 -15.000  -0.9620   0.03020   0.02539  -0.0881  0.9162  0.0290  -6.4559   0.0000   0.1352
 -14.800  -0.9479   0.02959   0.02475  -0.0878  0.9152  0.0293  -6.3363   0.0000   0.1344
 -14.600  -0.9314   0.02902   0.02416  -0.0879  0.9146  0.0295  -6.2085   0.0000   0.1330
 -14.400  -0.9125   0.02846   0.02358  -0.0883  0.9141  0.0299  -6.0736   0.0000   0.1307
 -14.200  -0.8908   0.02796   0.02307  -0.0892  0.9137  0.0303  -5.9293   0.0000   0.1276
 -14.000  -0.8812   0.02721   0.02232  -0.0880  0.9096  0.0307  -5.8279   0.0000   0.1282
 -13.800  -0.8603   0.02672   0.02181  -0.0885  0.9085  0.0311  -5.6879   0.0000   0.1253
 -13.600  -0.8369   0.02628   0.02137  -0.0894  0.9077  0.0316  -5.5403   0.0000   0.1214
 -13.400  -0.8115   0.02587   0.02095  -0.0906  0.9071  0.0322  -5.3876   0.0000   0.1167
 -13.200  -0.7845   0.02549   0.02057  -0.0920  0.9066  0.0327  -5.2309   0.0000   0.1111
 -13.000  -0.7567   0.02513   0.02020  -0.0935  0.9063  0.0332  -5.0796   0.0000   0.1047
 -12.800  -0.7280   0.02476   0.01983  -0.0952  0.9059  0.0339  -4.9273   0.0000   0.0974
 -12.600  -0.7151   0.02435   0.01943  -0.0942  0.9027  0.0344  -4.8252   0.0000   0.0967
 -12.400  -0.6901   0.02403   0.01910  -0.0952  0.9015  0.0350  -4.6870   0.0000   0.0905
 -12.200  -0.6631   0.02372   0.01880  -0.0964  0.9006  0.0357  -4.5440   0.0000   0.0828
 -12.000  -0.6354   0.02345   0.01852  -0.0978  0.9000  0.0363  -4.4006   0.0000   0.0742
 -11.800  -0.6063   0.02316   0.01823  -0.0994  0.8995  0.0370  -4.2548   0.0000   0.0639
 -11.600  -0.5755   0.02284   0.01792  -0.1013  0.8990  0.0379  -4.1058   0.0000   0.0515
 -11.400  -0.5449   0.02256   0.01765  -0.1031  0.8986  0.0389  -3.9592   0.0000   0.0379
 -11.200  -0.5141   0.02230   0.01739  -0.1049  0.8983  0.0398  -3.8166   0.0000   0.0225
 -11.000  -0.4831   0.02206   0.01715  -0.1067  0.8980  0.0406  -3.6790   0.0000   0.0051
 -10.800  -0.4692   0.02194   0.01705  -0.1056  0.8946  0.0414  -3.5881   0.0000   0.0008
 -10.600  -0.4410   0.02169   0.01681  -0.1070  0.8930  0.0424  -3.4607   0.0000  -0.0172
 -10.400  -0.4092   0.02136   0.01649  -0.1089  0.8917  0.0435  -3.3255   0.0000  -0.0417
 -10.000  -0.3460   0.02071   0.01586  -0.1126  0.8888  0.0458  -3.0625   0.0000  -0.1034
  -9.600  -0.3429   0.02173   0.01692  -0.1062  0.8581  0.0472  -2.9520   0.0000  -0.0865
  -9.400  -0.3122   0.02153   0.01672  -0.1078  0.8493  0.0487  -2.8284   0.0000  -0.1236
  -9.200  -0.2769   0.02119   0.01640  -0.1102  0.8446  0.0503  -2.6999   0.0000  -0.1786
  -9.000  -0.2383   0.02073   0.01594  -0.1131  0.8403  0.0522  -2.5660   0.0000  -0.2587
  -8.800  -0.1922   0.01999   0.01519  -0.1173  0.8325  0.0543  -2.4184   0.0000  -0.4005
  -8.600  -0.1326   0.01876   0.01391  -0.1239  0.8201  0.0576  -2.2456   0.0000  -0.7397
  -8.400  -0.0714   0.01745   0.01246  -0.1309  0.7913  0.0610  -2.0747   0.0000  -1.6811
  -8.200  -0.0455   0.01730   0.01213  -0.1317  0.7514  0.0632  -1.9787   0.0000  -2.7884
  -8.000  -0.0244   0.01739   0.01212  -0.1316  0.7207  0.0653  -1.8971   0.0000  -5.3964
  -7.800  -0.0030   0.01751   0.01213  -0.1316  0.6921  0.0676  -1.8160   0.0000  -45.4220
  -7.600   0.0195   0.01761   0.01213  -0.1318  0.6661  0.0698  -1.7339   0.0000   7.3156
  -7.400   0.0436   0.01770   0.01214  -0.1323  0.6410  0.0727  -1.6499   0.0000   3.4088
  -7.200   0.0681   0.01777   0.01213  -0.1328  0.6181  0.0756  -1.5703   0.0000   2.2774
  -7.000   0.0942   0.01784   0.01214  -0.1336  0.5990  0.0796  -1.4892   0.0000   1.7224
  -6.800   0.1203   0.01790   0.01214  -0.1345  0.5806  0.0834  -1.4120   0.0000   1.4076
  -6.600   0.1466   0.01796   0.01214  -0.1353  0.5615  0.0878  -1.3367   0.0000   1.2041
  -6.400   0.1738   0.01801   0.01215  -0.1364  0.5419  0.0931  -1.2612   0.0000   1.0597
  -6.200   0.2011   0.01807   0.01214  -0.1374  0.5229  0.0988  -1.1867   0.0000   0.9537
  -6.000   0.2286   0.01812   0.01215  -0.1385  0.5054  0.1052  -1.1129   0.0000   0.8726
  -5.800   0.2564   0.01818   0.01217  -0.1396  0.4885  0.1123  -1.0399   0.0000   0.8084
  -5.600   0.2847   0.01826   0.01221  -0.1408  0.4721  0.1207  -0.9675   0.0000   0.7564
  -5.400   0.3133   0.01834   0.01228  -0.1421  0.4574  0.1311  -0.8977   0.0000   0.7135
  -5.200   0.3421   0.01844   0.01235  -0.1434  0.4435  0.1428  -0.8313   0.0000   0.6776
  -5.000   0.3719   0.01855   0.01245  -0.1449  0.4290  0.1579  -0.8389   0.0000   0.6468
  -4.800   0.4048   0.01868   0.01261  -0.1471  0.4148  0.1834  -0.8713   0.0000   0.6193
  -4.600   0.4413   0.01885   0.01283  -0.1500  0.4011  0.2199  -0.9063   0.0000   0.5947
  -4.400   0.4897   0.01914   0.01327  -0.1553  0.3865  0.2937  -0.9499   0.0000   0.5709
  -4.200   0.5374   0.01946   0.01374  -0.1604  0.3735  0.3638  -0.9935   0.0000   0.5514
  -4.000   0.5712   0.01968   0.01398  -0.1627  0.3637  0.3918  -1.0277   0.0000   0.5370
  -3.800   0.6032   0.01988   0.01419  -0.1646  0.3548  0.4144  -1.0610   0.0000   0.5244
  -3.600   0.6347   0.02009   0.01440  -0.1663  0.3472  0.4342  -1.0941   0.0000   0.5132
  -3.200   0.6984   0.02054   0.01487  -0.1700  0.3332  0.4740  -1.1615   0.0000   0.4935
  -3.000   0.7299   0.02078   0.01512  -0.1717  0.3277  0.4907  -1.1953   0.0000   0.4849
  -2.800   0.7620   0.02103   0.01538  -0.1735  0.3211  0.5088  -1.2327   0.0000   0.4770
  -2.600   0.7939   0.02129   0.01562  -0.1753  0.3133  0.5262  -1.2701   0.0000   0.4698
  -2.400   0.8231   0.02151   0.01586  -0.1766  0.3086  0.5393  -1.3056   0.0000   0.4631
  -2.200   0.8507   0.02173   0.01606  -0.1775  0.3036  0.5478  -1.3401   0.0000   0.4569
  -2.000   0.8750   0.02190   0.01619  -0.1778  0.2991  0.5528  -1.3724   0.0000   0.4511
  -1.800   0.8994   0.02207   0.01635  -0.1782  0.2952  0.5570  -1.4060   0.0000   0.4456
  -1.600   0.9256   0.02227   0.01655  -0.1788  0.2918  0.5621  -1.4413   0.0000   0.4404
  -1.400   0.9505   0.02246   0.01673  -0.1792  0.2876  0.5672  -1.4769   0.0000   0.4355
  -1.200   0.9744   0.02265   0.01689  -0.1795  0.2832  0.5720  -1.5119   0.0000   0.4308
  -1.000   0.9981   0.02283   0.01705  -0.1796  0.2792  0.5765  -1.5470   0.0000   0.4263
  -0.800   1.0242   0.02306   0.01728  -0.1803  0.2764  0.5823  -1.5845   0.0000   0.4220
  -0.600   1.0488   0.02327   0.01749  -0.1806  0.2728  0.5876  -1.6209   0.0000   0.4179
  -0.400   1.0721   0.02347   0.01767  -0.1808  0.2690  0.5921  -1.6563   0.0000   0.4140
  -0.200   1.0946   0.02367   0.01783  -0.1807  0.2653  0.5958  -1.6911   0.0000   0.4102
   0.000   1.1199   0.02391   0.01808  -0.1812  0.2624  0.6010  -1.7286   0.0000   0.4066
   0.200   1.1444   0.02414   0.01832  -0.1815  0.2599  0.6064  -1.7657   0.0000   0.4032
   0.400   1.1678   0.02436   0.01853  -0.1816  0.2568  0.6114  -1.8046   0.0000   0.3998
   0.600   1.1900   0.02457   0.01873  -0.1816  0.2532  0.6153  -1.8429   0.0000   0.3965
   0.800   1.2133   0.02482   0.01896  -0.1817  0.2490  0.6193  -1.8823   0.0000   0.3934
   1.000   1.2369   0.02507   0.01921  -0.1818  0.2463  0.6238  -1.9223   0.0000   0.3904
   1.200   1.2600   0.02531   0.01945  -0.1819  0.2437  0.6286  -1.9621   0.0000   0.3875
   1.400   1.2824   0.02554   0.01969  -0.1818  0.2409  0.6332  -2.0013   0.0000   0.3846
   1.600   1.3041   0.02578   0.01991  -0.1817  0.2378  0.6370  -2.0421   0.0000   0.3818
   1.800   1.3270   0.02607   0.02019  -0.1817  0.2341  0.6416  -2.0854   0.0000   0.3792
   2.000   1.3497   0.02633   0.02046  -0.1817  0.2314  0.6463  -2.1286   0.0000   0.3766
   2.200   1.3717   0.02659   0.02072  -0.1816  0.2287  0.6508  -2.1714   0.0000   0.3740
   2.400   1.3930   0.02686   0.02098  -0.1813  0.2256  0.6546  -2.2137   0.0000   0.3715
   2.600   1.4139   0.02713   0.02124  -0.1810  0.2223  0.6578  -2.2558   0.0000   0.3691
   2.800   1.4351   0.02743   0.02154  -0.1807  0.2191  0.6616  -2.2984   0.0000   0.3667
   3.000   1.4566   0.02771   0.02183  -0.1805  0.2171  0.6658  -2.3415   0.0000   0.3644
   3.200   1.4778   0.02799   0.02212  -0.1802  0.2146  0.6700  -2.3877   0.0000   0.3621
   3.400   1.4984   0.02829   0.02241  -0.1798  0.2113  0.6737  -2.4335   0.0000   0.3599
   3.600   1.5184   0.02861   0.02271  -0.1794  0.2077  0.6766  -2.4789   0.0000   0.3577
   3.800   1.5383   0.02893   0.02303  -0.1789  0.2047  0.6802  -2.5243   0.0000   0.3556
   4.000   1.5584   0.02922   0.02335  -0.1784  0.2027  0.6840  -2.5717   0.0000   0.3535
   4.200   1.5782   0.02953   0.02367  -0.1779  0.2000  0.6876  -2.6208   0.0000   0.3514
   4.400   1.5974   0.02987   0.02400  -0.1773  0.1966  0.6909  -2.6696   0.0000   0.3494
   4.600   1.6163   0.03024   0.02435  -0.1767  0.1931  0.6939  -2.7188   0.0000   0.3473
   4.800   1.6358   0.03059   0.02470  -0.1761  0.1907  0.6966  -2.7703   0.0000   0.3454
   5.000   1.6541   0.03093   0.02507  -0.1754  0.1884  0.6997  -2.8210   0.0000   0.3434
   5.200   1.6716   0.03130   0.02545  -0.1745  0.1856  0.7029  -2.8719   0.0000   0.3415
   5.400   1.6886   0.03171   0.02586  -0.1735  0.1825  0.7058  -2.9224   0.0000   0.3395
   5.600   1.7056   0.03214   0.02629  -0.1726  0.1795  0.7087  -2.9732   0.0000   0.3376
   5.800   1.7238   0.03254   0.02670  -0.1718  0.1773  0.7117  -3.0260   0.0000   0.3358
   6.000   1.7418   0.03297   0.02714  -0.1711  0.1743  0.7144  -3.0818   0.0000   0.3340
   6.200   1.7591   0.03345   0.02761  -0.1702  0.1706  0.7166  -3.1396   0.0000   0.3322
   6.400   1.7743   0.03390   0.02806  -0.1690  0.1672  0.7192  -3.1940   0.0000   0.3303
   6.600   1.7898   0.03431   0.02848  -0.1678  0.1644  0.7219  -3.2518   0.0000   0.3285
   6.800   1.8050   0.03476   0.02895  -0.1666  0.1614  0.7245  -3.3109   0.0000   0.3267
   7.000   1.8195   0.03530   0.02948  -0.1653  0.1580  0.7271  -3.3706   0.0000   0.3249
   7.200   1.8345   0.03584   0.03003  -0.1641  0.1553  0.7294  -3.4337   0.0000   0.3231
   7.400   1.8497   0.03640   0.03060  -0.1630  0.1523  0.7318  -3.5004   0.0000   0.3214
   7.600   1.8644   0.03704   0.03124  -0.1618  0.1485  0.7340  -3.5662   0.0000   0.3197
   7.800   1.8793   0.03771   0.03190  -0.1606  0.1451  0.7359  -3.6351   0.0000   0.3180
   8.000   1.8925   0.03825   0.03246  -0.1592  0.1421  0.7379  -3.7052   0.0000   0.3163
   8.200   1.9043   0.03884   0.03306  -0.1575  0.1390  0.7398  -3.7755   0.0000   0.3145
   8.400   1.9146   0.03955   0.03378  -0.1557  0.1359  0.7417  -3.8431   0.0000   0.3127
   8.600   1.9264   0.04019   0.03445  -0.1541  0.1334  0.7438  -3.9142   0.0000   0.3110
   8.800   1.9373   0.04093   0.03519  -0.1524  0.1296  0.7459  -3.9841   0.0000   0.3093
   9.000   1.9478   0.04177   0.03602  -0.1507  0.1258  0.7479  -4.0534   0.0000   0.3076
   9.200   1.9594   0.04256   0.03683  -0.1492  0.1223  0.7499  -4.1258   0.0000   0.3060
   9.400   1.9691   0.04355   0.03782  -0.1475  0.1188  0.7516  -4.1943   0.0000   0.3044
   9.600   1.9802   0.04448   0.03876  -0.1460  0.1160  0.7531  -4.2663   0.0000   0.3028
   9.800   1.9922   0.04539   0.03968  -0.1447  0.1132  0.7546  -4.3473   0.0000   0.3013
  10.000   1.9995   0.04640   0.04071  -0.1427  0.1104  0.7562  -4.4186   0.0000   0.2996
  10.200   2.0057   0.04738   0.04172  -0.1406  0.1081  0.7579  -4.4869   0.0000   0.2979
  10.400   2.0130   0.04830   0.04267  -0.1386  0.1057  0.7595  -4.5604   0.0000   0.2963
  10.600   2.0177   0.04948   0.04387  -0.1365  0.1027  0.7609  -4.6285   0.0000   0.2946
  10.800   2.0229   0.05068   0.04510  -0.1345  0.0998  0.7624  -4.6977   0.0000   0.2930
  11.000   2.0277   0.05197   0.04641  -0.1325  0.0965  0.7640  -4.7665   0.0000   0.2914
  11.200   2.0306   0.05351   0.04796  -0.1304  0.0932  0.7655  -4.8305   0.0000   0.2898
  11.400   2.0361   0.05493   0.04941  -0.1288  0.0904  0.7671  -4.9015   0.0000   0.2884
  11.600   2.0399   0.05659   0.05109  -0.1271  0.0876  0.7685  -4.9682   0.0000   0.2870
  11.800   2.0438   0.05830   0.05283  -0.1255  0.0853  0.7698  -5.0376   0.0000   0.2856
  12.000   2.0482   0.06001   0.05458  -0.1241  0.0829  0.7710  -5.1089   0.0000   0.2843
  12.200   2.0502   0.06201   0.05661  -0.1226  0.0803  0.7721  -5.1734   0.0000   0.2830
  12.400   2.0532   0.06398   0.05860  -0.1213  0.0780  0.7730  -5.2410   0.0000   0.2818
  12.600   2.0528   0.06596   0.06063  -0.1197  0.0758  0.7741  -5.3004   0.0000   0.2805
  12.800   2.0495   0.06815   0.06287  -0.1180  0.0737  0.7751  -5.3526   0.0000   0.2792
  13.000   2.0477   0.07020   0.06497  -0.1165  0.0721  0.7762  -5.4095   0.0000   0.2780
  13.200   2.0454   0.07236   0.06719  -0.1151  0.0702  0.7773  -5.4647   0.0000   0.2769
  13.400   2.0412   0.07483   0.06970  -0.1138  0.0683  0.7783  -5.5133   0.0000   0.2759
  13.600   2.0373   0.07734   0.07227  -0.1128  0.0666  0.7792  -5.5624   0.0000   0.2749
  13.800   2.0334   0.07993   0.07492  -0.1119  0.0648  0.7801  -5.6110   0.0000   0.2741
  14.000   2.0277   0.08283   0.07787  -0.1113  0.0630  0.7810  -5.6531   0.0000   0.2733
  14.200   2.0218   0.08583   0.08094  -0.1108  0.0614  0.7818  -5.6939   0.0000   0.2727
  14.400   2.0171   0.08876   0.08393  -0.1106  0.0598  0.7827  -5.7380   0.0000   0.2721
  14.600   2.0105   0.09198   0.08721  -0.1106  0.0582  0.7836  -5.7746   0.0000   0.2717
  14.800   2.0024   0.09546   0.09075  -0.1108  0.0567  0.7845  -5.8052   0.0000   0.2714
  15.000   1.9971   0.09865   0.09401  -0.1111  0.0554  0.7855  -5.8445   0.0000   0.2711
  15.200   1.9903   0.10210   0.09752  -0.1118  0.0540  0.7864  -5.8771   0.0000   0.2710
  15.400   1.9818   0.10583   0.10132  -0.1127  0.0526  0.7873  -5.9023   0.0000   0.2710
  15.600   1.9741   0.10950   0.10506  -0.1137  0.0515  0.7881  -5.9292   0.0000   0.2711
  15.800   1.9676   0.11304   0.10867  -0.1149  0.0503  0.7889  -5.9598   0.0000   0.2713
  16.000   1.9594   0.11685   0.11254  -0.1163  0.0491  0.7895  -5.9820   0.0000   0.2716
  16.200   1.9497   0.12089   0.11665  -0.1181  0.0480  0.7901  -5.9970   0.0000   0.2721
  16.400   1.9406   0.12483   0.12066  -0.1199  0.0470  0.7906  -6.0127   0.0000   0.2726
  16.600   1.9308   0.12842   0.12434  -0.1213  0.0462  0.7912  -6.0250   0.0000   0.2730
  16.800   1.9202   0.13212   0.12811  -0.1230  0.0452  0.7918  -6.0331   0.0000   0.2735
  17.000   1.9089   0.13593   0.13199  -0.1248  0.0443  0.7924  -6.0367   0.0000   0.2742
  17.200   1.8974   0.13976   0.13588  -0.1268  0.0434  0.7930  -6.0389   0.0000   0.2749
  17.400   1.8876   0.14331   0.13950  -0.1287  0.0426  0.7936  -6.0476   0.0000   0.2756
  17.600   1.8774   0.14695   0.14322  -0.1307  0.0418  0.7943  -6.0529   0.0000   0.2764
  17.800   1.8676   0.15055   0.14689  -0.1329  0.0409  0.7949  -6.0583   0.0000   0.2772
  18.000   1.8584   0.15407   0.15047  -0.1351  0.0401  0.7956  -6.0654   0.0000   0.2780
  18.200   1.8474   0.15798   0.15444  -0.1377  0.0393  0.7962  -6.0615   0.0000   0.2792
  18.400   1.8403   0.16132   0.15783  -0.1400  0.0386  0.7969  -6.0752   0.0000   0.2800
  18.600   1.8339   0.16459   0.16116  -0.1423  0.0379  0.7976  -6.0910   0.0000   0.2808
  18.800   1.8265   0.16806   0.16469  -0.1448  0.0371  0.7983  -6.1004   0.0000   0.2818
  19.000   1.8203   0.17136   0.16804  -0.1473  0.0363  0.7990  -6.1144   0.0000   0.2827
  19.200   1.8120   0.17504   0.17178  -0.1503  0.0356  0.7997  -6.1172   0.0000   0.2839
  19.400   1.8088   0.17792   0.17470  -0.1526  0.0349  0.8006  -6.1487   0.0000   0.2846
  19.600   1.8039   0.18111   0.17794  -0.1552  0.0342  0.8014  -6.1698   0.0000   0.2856
  19.800   1.7999   0.18421   0.18108  -0.1578  0.0334  0.8024  -6.1945   0.0000   0.2865
  20.000   1.7958   0.18738   0.18429  -0.1606  0.0326  0.8033  -6.2172   0.0000   0.2875
  20.200   1.7907   0.19080   0.18775  -0.1638  0.0319  0.8042  -6.2321   0.0000   0.2887
  20.400   1.7905   0.19346   0.19045  -0.1662  0.0312  0.8052  -6.2747   0.0000   0.2894
  20.600   1.7867   0.19676   0.19380  -0.1694  0.0305  0.8059  -6.2944   0.0000   0.2906
  20.800   1.7853   0.19967   0.19674  -0.1722  0.0297  0.8066  -6.3278   0.0000   0.2914
  21.000   1.7799   0.20273   0.19984  -0.1750  0.0291  0.8072  -6.3399   0.0000   0.2926
  21.200   1.7757   0.20536   0.20251  -0.1774  0.0285  0.8077  -6.3600   0.0000   0.2934
  21.400   1.7738   0.20757   0.20476  -0.1793  0.0279  0.8082  -6.3947   0.0000   0.2938
  21.600   1.7694   0.21023   0.20747  -0.1817  0.0274  0.8087  -6.4120   0.0000   0.2947
  21.800   1.7660   0.21270   0.20997  -0.1840  0.0268  0.8092  -6.4352   0.0000   0.2954
  22.000   1.7627   0.21514   0.21244  -0.1863  0.0262  0.8097  -6.4588   0.0000   0.2961
  22.200   1.7573   0.21803   0.21538  -0.1891  0.0257  0.8102  -6.4655   0.0000   0.2972
  22.400   1.7561   0.22016   0.21754  -0.1912  0.0251  0.8107  -6.5006   0.0000   0.2977
  22.600   1.7548   0.22232   0.21973  -0.1933  0.0246  0.8113  -6.5346   0.0000   0.2982
  22.800   1.7509   0.22498   0.22243  -0.1960  0.0240  0.8119  -6.5486   0.0000   0.2992
  23.000   1.7483   0.22738   0.22487  -0.1984  0.0235  0.8125  -6.5712   0.0000   0.3000
  23.200   1.7456   0.22980   0.22731  -0.2009  0.0229  0.8132  -6.5928   0.0000   0.3008
  23.400   1.7429   0.23226   0.22981  -0.2035  0.0225  0.8139  -6.6121   0.0000   0.3016
  23.600   1.7422   0.23437   0.23196  -0.2058  0.0221  0.8147  -6.6459   0.0000   0.3021
  23.800   1.7416   0.23650   0.23411  -0.2081  0.0216  0.8154  -6.6798   0.0000   0.3027
  24.000   1.7387   0.23916   0.23681  -0.2110  0.0211  0.8161  -6.6931   0.0000   0.3037
  24.200   1.7371   0.24163   0.23930  -0.2138  0.0206  0.8169  -6.7154   0.0000   0.3046
  24.400   1.7365   0.24393   0.24162  -0.2165  0.0202  0.8176  -6.7443   0.0000   0.3053
  24.600   1.7358   0.24631   0.24404  -0.2193  0.0198  0.8184  -6.7706   0.0000   0.3061
  24.800   1.7364   0.24850   0.24626  -0.2219  0.0194  0.8192  -6.8062   0.0000   0.3067
  25.000   1.7374   0.25066   0.24845  -0.2245  0.0190  0.8200  -6.8443   0.0000   0.3073


