xflr5 v6.47

 Calculated polar for: NACA24018_theta30_Ku4.5_Kl0.5_d0.00_delta0.00

 1 1 Reynolds number fixed          Mach number fixed         

 xtrf =   1.000 (top)        1.000 (bottom)
 Mach =   0.000     Re =     2.200 e 6     Ncrit =   5.000

  alpha     CL        CD       CDp       Cm    Top Xtr Bot Xtr   Cpmin    Chinge    XCp    
 ------- -------- --------- --------- -------- ------- ------- -------- --------- ---------
 -15.000  -1.2796   0.01963   0.01459  -0.0549  1.0000  0.0210  -7.8169   0.0000   0.1849
 -14.800  -1.2725   0.01915   0.01410  -0.0529  1.0000  0.0213  -7.7101   0.0000   0.1866
 -14.600  -1.2640   0.01869   0.01363  -0.0511  0.9999  0.0215  -7.5984   0.0000   0.1881
 -14.400  -1.2442   0.01821   0.01313  -0.0514  0.9995  0.0218  -7.4443   0.0000   0.1875
 -14.200  -1.2243   0.01775   0.01266  -0.0517  0.9989  0.0221  -7.2907   0.0000   0.1869
 -14.000  -1.2039   0.01732   0.01222  -0.0520  0.9980  0.0224  -7.1367   0.0000   0.1862
 -13.800  -1.1833   0.01691   0.01180  -0.0523  0.9969  0.0226  -6.9833   0.0000   0.1854
 -13.600  -1.1641   0.01651   0.01139  -0.0523  0.9947  0.0229  -6.8356   0.0000   0.1850
 -13.400  -1.1454   0.01614   0.01100  -0.0521  0.9930  0.0231  -6.6911   0.0000   0.1847
 -13.200  -1.1258   0.01578   0.01064  -0.0521  0.9911  0.0232  -6.5445   0.0000   0.1842
 -13.000  -1.1058   0.01540   0.01026  -0.0521  0.9893  0.0236  -6.3984   0.0000   0.1835
 -12.600  -1.0681   0.01470   0.00954  -0.0517  0.9839  0.0244  -6.1191   0.0000   0.1828
 -12.400  -1.0480   0.01436   0.00921  -0.0516  0.9806  0.0248  -5.9801   0.0000   0.1822
 -12.200  -1.0258   0.01404   0.00888  -0.0520  0.9779  0.0252  -5.8355   0.0000   0.1810
 -12.000  -1.0038   0.01374   0.00858  -0.0522  0.9737  0.0256  -5.6927   0.0000   0.1798
 -11.800  -0.9778   0.01344   0.00828  -0.0533  0.9705  0.0260  -5.5386   0.0000   0.1775
 -11.600  -0.9511   0.01316   0.00799  -0.0545  0.9668  0.0263  -5.3840   0.0000   0.1749
 -11.400  -0.9220   0.01286   0.00768  -0.0562  0.9623  0.0268  -5.2243   0.0000   0.1713
 -11.200  -0.8878   0.01253   0.00736  -0.0590  0.9589  0.0274  -5.0505   0.0000   0.1659
 -11.000  -0.8513   0.01222   0.00705  -0.0622  0.9531  0.0281  -4.8720   0.0000   0.1592
 -10.800  -0.8122   0.01192   0.00674  -0.0660  0.9455  0.0288  -4.6882   0.0000   0.1510
 -10.600  -0.7762   0.01166   0.00646  -0.0691  0.9341  0.0294  -4.5193   0.0000   0.1432
 -10.400  -0.7483   0.01147   0.00622  -0.0705  0.9182  0.0299  -4.3781   0.0000   0.1381
 -10.200  -0.7293   0.01130   0.00598  -0.0700  0.8981  0.0306  -4.2631   0.0000   0.1365
 -10.000  -0.7150   0.01117   0.00578  -0.0684  0.8763  0.0312  -4.1621   0.0000   0.1369
  -9.800  -0.7034   0.01107   0.00560  -0.0662  0.8516  0.0317  -4.0689   0.0000   0.1386
  -9.600  -0.6919   0.01099   0.00543  -0.0640  0.8263  0.0322  -3.9770   0.0000   0.1405
  -9.400  -0.6802   0.01091   0.00526  -0.0619  0.8020  0.0327  -3.8849   0.0000   0.1423
  -9.200  -0.6682   0.01084   0.00511  -0.0597  0.7790  0.0331  -3.7929   0.0000   0.1441
  -9.000  -0.6550   0.01076   0.00495  -0.0579  0.7575  0.0335  -3.6987   0.0000   0.1453
  -8.800  -0.6422   0.01066   0.00479  -0.0559  0.7377  0.0342  -3.6065   0.0000   0.1468
  -8.600  -0.6290   0.01057   0.00464  -0.0540  0.7191  0.0349  -3.5142   0.0000   0.1482
  -8.400  -0.6150   0.01047   0.00450  -0.0523  0.7031  0.0357  -3.4241   0.0000   0.1492
  -8.200  -0.6007   0.01038   0.00436  -0.0506  0.6881  0.0365  -3.3340   0.0000   0.1502
  -8.000  -0.5862   0.01030   0.00424  -0.0489  0.6732  0.0371  -3.2441   0.0000   0.1511
  -7.800  -0.5717   0.01024   0.00413  -0.0472  0.6589  0.0378  -3.1554   0.0000   0.1521
  -7.600  -0.5578   0.01018   0.00403  -0.0454  0.6447  0.0387  -3.0689   0.0000   0.1534
  -7.400  -0.5433   0.01011   0.00393  -0.0438  0.6309  0.0396  -2.9816   0.0000   0.1544
  -7.200  -0.5273   0.01005   0.00383  -0.0424  0.6176  0.0405  -2.8919   0.0000   0.1547
  -7.000  -0.5104   0.00998   0.00372  -0.0412  0.6041  0.0413  -2.8009   0.0000   0.1545
  -6.800  -0.4933   0.00992   0.00362  -0.0400  0.5906  0.0422  -2.7106   0.0000   0.1541
  -6.600  -0.4763   0.00985   0.00352  -0.0389  0.5779  0.0436  -2.6215   0.0000   0.1538
  -6.400  -0.4589   0.00978   0.00342  -0.0378  0.5667  0.0450  -2.5329   0.0000   0.1531
  -6.200  -0.4410   0.00972   0.00333  -0.0368  0.5560  0.0461  -2.4475   0.0000   0.1520
  -6.000  -0.4230   0.00966   0.00325  -0.0358  0.5449  0.0473  -2.3630   0.0000   0.1508
  -5.800  -0.4051   0.00959   0.00316  -0.0348  0.5338  0.0490  -2.2796   0.0000   0.1496
  -5.600  -0.3871   0.00954   0.00308  -0.0338  0.5214  0.0506  -2.1968   0.0000   0.1481
  -5.400  -0.3688   0.00951   0.00300  -0.0329  0.5076  0.0519  -2.1146   0.0000   0.1464
  -5.200  -0.3510   0.00946   0.00293  -0.0319  0.4936  0.0537  -2.0342   0.0000   0.1447
  -5.000  -0.3327   0.00942   0.00285  -0.0309  0.4814  0.0555  -1.9574   0.0000   0.1424
  -4.800  -0.3140   0.00939   0.00279  -0.0301  0.4701  0.0572  -1.8808   0.0000   0.1396
  -4.600  -0.2952   0.00933   0.00272  -0.0293  0.4605  0.0596  -1.8050   0.0000   0.1362
  -4.400  -0.2764   0.00928   0.00265  -0.0284  0.4513  0.0621  -1.7318   0.0000   0.1323
  -4.000  -0.2384   0.00921   0.00254  -0.0268  0.4317  0.0667  -1.5906   0.0000   0.1221
  -3.800  -0.2194   0.00918   0.00248  -0.0260  0.4217  0.0694  -1.5214   0.0000   0.1157
  -3.600  -0.2004   0.00915   0.00243  -0.0252  0.4112  0.0724  -1.4531   0.0000   0.1082
  -3.400  -0.1813   0.00911   0.00238  -0.0245  0.4018  0.0761  -1.3854   0.0000   0.0987
  -3.200  -0.1619   0.00908   0.00234  -0.0238  0.3937  0.0793  -1.3209   0.0000   0.0864
  -3.000  -0.1430   0.00905   0.00229  -0.0230  0.3843  0.0841  -1.2584   0.0000   0.0719
  -2.800  -0.1236   0.00902   0.00225  -0.0222  0.3759  0.0886  -1.1958   0.0000   0.0514
  -2.600  -0.1045   0.00899   0.00222  -0.0215  0.3674  0.0940  -1.1346   0.0000   0.0247
  -2.400  -0.0850   0.00895   0.00218  -0.0208  0.3603  0.0997  -1.0737   0.0000  -0.0162
  -2.200  -0.0657   0.00892   0.00215  -0.0200  0.3536  0.1061  -1.0166   0.0000  -0.0802
  -2.000  -0.0463   0.00887   0.00211  -0.0193  0.3473  0.1141  -0.9602   0.0000  -0.1987
  -1.800  -0.0273   0.00884   0.00208  -0.0186  0.3402  0.1230  -0.9054   0.0000  -0.4740
  -1.600  -0.0079   0.00878   0.00205  -0.0178  0.3347  0.1339  -0.8531   0.0000  -2.1287
  -1.400   0.0110   0.00874   0.00202  -0.0171  0.3285  0.1462  -0.8021   0.0000   1.8693
  -1.200   0.0300   0.00867   0.00199  -0.0163  0.3241  0.1618  -0.7803   0.0000   0.8112
  -1.000   0.0483   0.00856   0.00195  -0.0154  0.3196  0.1855  -0.8016   0.0000   0.5757
  -0.800   0.0647   0.00840   0.00190  -0.0141  0.3143  0.2250  -0.8221   0.0000   0.4706
  -0.600   0.0788   0.00811   0.00182  -0.0124  0.3104  0.2886  -0.8417   0.0000   0.4072
  -0.400   0.0943   0.00790   0.00176  -0.0110  0.3065  0.3402  -0.8625   0.0000   0.3641
  -0.200   0.1109   0.00775   0.00174  -0.0098  0.3026  0.3804  -0.8841   0.0000   0.3340
   0.000   0.1288   0.00767   0.00173  -0.0088  0.2987  0.4092  -0.9066   0.0000   0.3129
   0.200   0.1476   0.00759   0.00172  -0.0080  0.2961  0.4322  -0.9299   0.0000   0.2979
   0.400   0.1661   0.00752   0.00171  -0.0071  0.2927  0.4568  -0.9535   0.0000   0.2859
   0.600   0.1848   0.00748   0.00172  -0.0062  0.2886  0.4785  -0.9780   0.0000   0.2765
   1.000   0.2229   0.00741   0.00174  -0.0047  0.2822  0.5155  -1.0278   0.0000   0.2629
   1.200   0.2418   0.00736   0.00175  -0.0039  0.2796  0.5382  -1.0527   0.0000   0.2576
   1.400   0.2601   0.00732   0.00177  -0.0030  0.2765  0.5605  -1.0775   0.0000   0.2526
   1.600   0.2785   0.00730   0.00179  -0.0020  0.2728  0.5827  -1.1022   0.0000   0.2483
   1.800   0.2965   0.00725   0.00181  -0.0010  0.2699  0.6067  -1.1271   0.0000   0.2443
   2.000   0.3155   0.00723   0.00184  -0.0003  0.2673  0.6251  -1.1538   0.0000   0.2413
   2.200   0.3352   0.00724   0.00186   0.0004  0.2644  0.6349  -1.1811   0.0000   0.2391
   2.400   0.3551   0.00728   0.00190   0.0010  0.2609  0.6430  -1.2089   0.0000   0.2373
   2.600   0.3744   0.00731   0.00194   0.0017  0.2574  0.6522  -1.2375   0.0000   0.2353
   2.800   0.3943   0.00733   0.00197   0.0023  0.2553  0.6616  -1.2667   0.0000   0.2339
   3.000   0.4140   0.00735   0.00201   0.0029  0.2529  0.6719  -1.2959   0.0000   0.2324
   3.200   0.4331   0.00736   0.00205   0.0037  0.2503  0.6827  -1.3247   0.0000   0.2308
   3.400   0.4520   0.00740   0.00209   0.0045  0.2472  0.6929  -1.3535   0.0000   0.2292
   3.600   0.4712   0.00744   0.00214   0.0052  0.2441  0.7028  -1.3835   0.0000   0.2279
   3.800   0.4902   0.00746   0.00218   0.0059  0.2420  0.7131  -1.4141   0.0000   0.2266
   4.000   0.5091   0.00748   0.00223   0.0067  0.2395  0.7234  -1.4447   0.0000   0.2253
   4.200   0.5277   0.00752   0.00228   0.0076  0.2369  0.7345  -1.4752   0.0000   0.2240
   4.400   0.5458   0.00756   0.00234   0.0085  0.2340  0.7464  -1.5053   0.0000   0.2226
   4.600   0.5635   0.00760   0.00240   0.0095  0.2312  0.7579  -1.5353   0.0000   0.2211
   4.800   0.5818   0.00762   0.00246   0.0104  0.2292  0.7685  -1.5668   0.0000   0.2198
   5.000   0.5996   0.00766   0.00251   0.0114  0.2267  0.7795  -1.5987   0.0000   0.2185
   5.200   0.6163   0.00770   0.00257   0.0126  0.2242  0.7910  -1.6296   0.0000   0.2169
   5.400   0.6318   0.00773   0.00263   0.0141  0.2217  0.8026  -1.6595   0.0000   0.2148
   5.600   0.6470   0.00777   0.00270   0.0157  0.2189  0.8148  -1.6893   0.0000   0.2127
   5.800   0.6633   0.00780   0.00276   0.0170  0.2173  0.8266  -1.7202   0.0000   0.2111
   6.000   0.6795   0.00784   0.00284   0.0183  0.2150  0.8385  -1.7514   0.0000   0.2096
   6.200   0.6953   0.00790   0.00292   0.0197  0.2123  0.8512  -1.7844   0.0000   0.2079
   6.400   0.7105   0.00797   0.00302   0.0212  0.2093  0.8645  -1.8177   0.0000   0.2062
   6.600   0.7260   0.00805   0.00312   0.0226  0.2063  0.8782  -1.8514   0.0000   0.2046
   6.800   0.7430   0.00809   0.00321   0.0237  0.2048  0.8915  -1.8869   0.0000   0.2036
   7.000   0.7609   0.00816   0.00331   0.0246  0.2030  0.9039  -1.9234   0.0000   0.2030
   7.200   0.7803   0.00824   0.00343   0.0252  0.2006  0.9157  -1.9615   0.0000   0.2028
   7.400   0.8018   0.00835   0.00355   0.0252  0.1975  0.9268  -2.0020   0.0000   0.2034
   7.600   0.8265   0.00849   0.00370   0.0246  0.1941  0.9366  -2.0467   0.0000   0.2050
   7.800   0.8545   0.00860   0.00383   0.0232  0.1920  0.9451  -2.0967   0.0000   0.2074
   8.000   0.8860   0.00875   0.00398   0.0210  0.1889  0.9507  -2.1526   0.0000   0.2107
   8.200   0.9159   0.00893   0.00414   0.0192  0.1855  0.9561  -2.2074   0.0000   0.2133
   8.400   0.9467   0.00912   0.00431   0.0171  0.1822  0.9596  -2.2637   0.0000   0.2160
   8.600   0.9792   0.00927   0.00446   0.0147  0.1801  0.9620  -2.3229   0.0000   0.2188
   8.800   1.0095   0.00944   0.00462   0.0127  0.1771  0.9648  -2.3820   0.0000   0.2210
   9.000   1.0355   0.00963   0.00479   0.0117  0.1740  0.9687  -2.4362   0.0000   0.2221
   9.200   1.0634   0.00984   0.00498   0.0102  0.1705  0.9705  -2.4929   0.0000   0.2235
   9.400   1.0896   0.01001   0.00515   0.0092  0.1678  0.9727  -2.5482   0.0000   0.2245
   9.600   1.1126   0.01021   0.00533   0.0087  0.1642  0.9756  -2.6048   0.0000   0.2248
   9.800   1.1331   0.01043   0.00553   0.0088  0.1605  0.9789  -2.6601   0.0000   0.2246
  10.000   1.1571   0.01062   0.00572   0.0081  0.1581  0.9805  -2.7207   0.0000   0.2251
  10.200   1.1794   0.01081   0.00591   0.0079  0.1556  0.9827  -2.7793   0.0000   0.2251
  10.400   1.1985   0.01104   0.00612   0.0082  0.1522  0.9860  -2.8337   0.0000   0.2247
  10.600   1.2188   0.01131   0.00636   0.0082  0.1481  0.9880  -2.8969   0.0000   0.2245
  10.800   1.2418   0.01153   0.00658   0.0076  0.1451  0.9892  -2.9653   0.0000   0.2248
  11.000   1.2636   0.01178   0.00681   0.0073  0.1418  0.9906  -3.0321   0.0000   0.2248
  11.200   1.2841   0.01205   0.00707   0.0072  0.1387  0.9922  -3.0973   0.0000   0.2247
  11.400   1.3048   0.01228   0.00730   0.0071  0.1367  0.9938  -3.1634   0.0000   0.2246
  11.600   1.3247   0.01252   0.00755   0.0071  0.1345  0.9952  -3.2286   0.0000   0.2243
  11.800   1.3454   0.01283   0.00783   0.0069  0.1309  0.9968  -3.2955   0.0000   0.2242
  12.000   1.3660   0.01318   0.00816   0.0066  0.1267  0.9979  -3.3710   0.0000   0.2242
  12.200   1.3872   0.01349   0.00846   0.0062  0.1229  0.9987  -3.4505   0.0000   0.2242
  12.400   1.4069   0.01388   0.00883   0.0059  0.1188  0.9994  -3.5276   0.0000   0.2241
  12.800   1.4382   0.01452   0.00946   0.0072  0.1134  1.0000  -3.6707   0.0000   0.2226
  13.000   1.4449   0.01489   0.00982   0.0096  0.1106  1.0000  -3.7296   0.0000   0.2206
  13.200   1.4518   0.01529   0.01022   0.0118  0.1076  1.0000  -3.7900   0.0000   0.2187
  13.400   1.4607   0.01566   0.01059   0.0136  0.1052  1.0000  -3.8551   0.0000   0.2171
  13.600   1.4682   0.01611   0.01104   0.0156  0.1022  1.0000  -3.9172   0.0000   0.2155
  13.800   1.4746   0.01664   0.01157   0.0176  0.0990  1.0000  -3.9769   0.0000   0.2138
  14.000   1.4841   0.01708   0.01201   0.0191  0.0970  1.0000  -4.0465   0.0000   0.2124
  14.200   1.4923   0.01759   0.01253   0.0207  0.0944  1.0000  -4.1134   0.0000   0.2110
  14.400   1.4986   0.01823   0.01316   0.0225  0.0915  1.0000  -4.1755   0.0000   0.2095
  14.600   1.5067   0.01881   0.01375   0.0239  0.0893  1.0000  -4.2429   0.0000   0.2082
  14.800   1.5148   0.01943   0.01438   0.0253  0.0870  1.0000  -4.3124   0.0000   0.2069
  15.000   1.5208   0.02019   0.01514   0.0268  0.0842  1.0000  -4.3766   0.0000   0.2056
  15.200   1.5272   0.02097   0.01593   0.0281  0.0818  1.0000  -4.4419   0.0000   0.2043
  15.400   1.5348   0.02172   0.01669   0.0293  0.0797  1.0000  -4.5116   0.0000   0.2033
  15.600   1.5403   0.02263   0.01761   0.0305  0.0772  1.0000  -4.5771   0.0000   0.2021
  15.800   1.5444   0.02367   0.01865   0.0317  0.0746  1.0000  -4.6389   0.0000   0.2009
  16.000   1.5510   0.02460   0.01960   0.0326  0.0727  1.0000  -4.7076   0.0000   0.1999
  16.200   1.5556   0.02570   0.02072   0.0336  0.0704  1.0000  -4.7712   0.0000   0.1989
  16.400   1.5578   0.02701   0.02204   0.0345  0.0680  1.0000  -4.8296   0.0000   0.1978
  16.600   1.5627   0.02818   0.02323   0.0352  0.0662  1.0000  -4.8959   0.0000   0.1970
  16.800   1.5661   0.02951   0.02459   0.0359  0.0643  1.0000  -4.9602   0.0000   0.1961
  17.000   1.5671   0.03108   0.02617   0.0365  0.0623  1.0000  -5.0167   0.0000   0.1952
  17.200   1.5688   0.03265   0.02777   0.0371  0.0606  1.0000  -5.0751   0.0000   0.1944
  17.400   1.5715   0.03419   0.02934   0.0374  0.0592  1.0000  -5.1366   0.0000   0.1937
  17.600   1.5720   0.03597   0.03115   0.0377  0.0576  1.0000  -5.1917   0.0000   0.1929
  17.800   1.5696   0.03805   0.03326   0.0380  0.0559  1.0000  -5.2385   0.0000   0.1922
  18.000   1.5683   0.04011   0.03536   0.0381  0.0545  1.0000  -5.2881   0.0000   0.1916
  18.200   1.5675   0.04216   0.03745   0.0381  0.0533  1.0000  -5.3396   0.0000   0.1910
  18.400   1.5646   0.04448   0.03981   0.0380  0.0519  1.0000  -5.3830   0.0000   0.1904
  18.600   1.5589   0.04711   0.04248   0.0379  0.0506  1.0000  -5.4167   0.0000   0.1899
  18.800   1.5520   0.04995   0.04537   0.0376  0.0493  1.0000  -5.4450   0.0000   0.1894
  19.000   1.5472   0.05262   0.04809   0.0372  0.0484  1.0000  -5.4805   0.0000   0.1890
  19.200   1.5407   0.05551   0.05104   0.0367  0.0474  1.0000  -5.5089   0.0000   0.1886
  19.400   1.5322   0.05866   0.05425   0.0361  0.0465  1.0000  -5.5298   0.0000   0.1882
  19.600   1.5219   0.06210   0.05774   0.0353  0.0456  1.0000  -5.5426   0.0000   0.1880
  19.800   1.5092   0.06587   0.06158   0.0345  0.0447  1.0000  -5.5457   0.0000   0.1877
  20.000   1.4981   0.06949   0.06525   0.0335  0.0440  1.0000  -5.5537   0.0000   0.1876
  20.200   1.4875   0.07311   0.06894   0.0326  0.0434  1.0000  -5.5624   0.0000   0.1874
  20.400   1.4756   0.07693   0.07283   0.0315  0.0428  1.0000  -5.5654   0.0000   0.1874
  20.600   1.4623   0.08095   0.07691   0.0302  0.0421  1.0000  -5.5616   0.0000   0.1874
  20.800   1.4478   0.08519   0.08122   0.0289  0.0414  1.0000  -5.5517   0.0000   0.1875
  21.000   1.4324   0.08961   0.08571   0.0274  0.0407  1.0000  -5.5366   0.0000   0.1877
  21.200   1.4164   0.09412   0.09028   0.0259  0.0400  1.0000  -5.5179   0.0000   0.1879
  21.400   1.4028   0.09840   0.09462   0.0243  0.0394  1.0000  -5.5071   0.0000   0.1882
  21.600   1.3908   0.10251   0.09880   0.0228  0.0389  1.0000  -5.5016   0.0000   0.1886
  21.800   1.3802   0.10643   0.10277   0.0212  0.0382  1.0000  -5.5009   0.0000   0.1890
  22.000   1.3685   0.11051   0.10691   0.0196  0.0375  1.0000  -5.4949   0.0000   0.1894
  22.200   1.3552   0.11491   0.11136   0.0177  0.0368  1.0000  -5.4807   0.0000   0.1900
  22.400   1.3433   0.11913   0.11564   0.0159  0.0361  1.0000  -5.4713   0.0000   0.1907
  22.600   1.3332   0.12311   0.11967   0.0141  0.0353  1.0000  -5.4684   0.0000   0.1913
  22.800   1.3238   0.12702   0.12363   0.0122  0.0348  1.0000  -5.4673   0.0000   0.1920
  23.000   1.3182   0.13038   0.12703   0.0106  0.0342  1.0000  -5.4830   0.0000   0.1926
  23.200   1.3090   0.13432   0.13102   0.0086  0.0335  1.0000  -5.4800   0.0000   0.1935
  23.400   1.3034   0.13775   0.13448   0.0068  0.0328  1.0000  -5.4930   0.0000   0.1942
  23.600   1.2935   0.14184   0.13861   0.0046  0.0322  1.0000  -5.4852   0.0000   0.1952
  23.800   1.2886   0.14517   0.14197   0.0028  0.0314  1.0000  -5.5009   0.0000   0.1960
  24.000   1.2825   0.14871   0.14556   0.0008  0.0309  1.0000  -5.5092   0.0000   0.1970
  24.200   1.2793   0.15181   0.14869  -0.0011  0.0303  1.0000  -5.5316   0.0000   0.1978
  24.400   1.2760   0.15493   0.15184  -0.0030  0.0296  1.0000  -5.5545   0.0000   0.1986
  24.600   1.2691   0.15867   0.15562  -0.0052  0.0290  1.0000  -5.5563   0.0000   0.1998
  24.800   1.2656   0.16185   0.15882  -0.0072  0.0283  1.0000  -5.5760   0.0000   0.2008
  25.000   1.2600   0.16540   0.16241  -0.0095  0.0278  1.0000  -5.5822   0.0000   0.2020


