xflr5 v6.47

 Calculated polar for: NACA24018_theta30_Ku4.5_Kl0.5_d0.31_delta11.03

 1 1 Reynolds number fixed          Mach number fixed         

 xtrf =   1.000 (top)        1.000 (bottom)
 Mach =   0.000     Re =     1.200 e 6     Ncrit =   5.000

  alpha     CL        CD       CDp       Cm    Top Xtr Bot Xtr   Cpmin    Chinge    XCp    
 ------- -------- --------- --------- -------- ------- ------- -------- --------- ---------
 -15.000  -0.3186   0.05122   0.04723  -0.1414  0.8004  0.0442  -4.0249   0.0000  -0.2414
 -14.800  -0.2898   0.05155   0.04758  -0.1433  0.8004  0.0451  -3.8830   0.0000  -0.2952
 -14.600  -0.2619   0.05191   0.04795  -0.1449  0.8004  0.0460  -3.7448   0.0000  -0.3579
 -14.400  -0.2344   0.05229   0.04834  -0.1464  0.8004  0.0469  -3.6094   0.0000  -0.4338
 -14.200  -0.2071   0.05269   0.04874  -0.1479  0.8004  0.0478  -3.4763   0.0000  -0.5286
 -14.000  -0.1801   0.05311   0.04916  -0.1492  0.8004  0.0487  -3.3457   0.0000  -0.6504
 -13.800  -0.1517   0.05358   0.04964  -0.1509  0.8004  0.0497  -3.2140   0.0000  -0.8276
 -13.600  -0.1231   0.05408   0.05016  -0.1525  0.8004  0.0510  -3.0879   0.0000  -1.0870
 -13.400  -0.0939   0.05450   0.05058  -0.1541  0.8002  0.0524  -2.9662   0.0000  -1.5149
 -13.200  -0.0619   0.05474   0.05083  -0.1560  0.8000  0.0536  -2.8402   0.0000  -2.4498
 -13.000  -0.0246   0.05486   0.05095  -0.1586  0.7996  0.0551  -2.7032   0.0000  -6.6362
 -12.800   0.0163   0.05484   0.05094  -0.1617  0.7992  0.0570  -2.5596   0.0000  10.7847
 -12.600   0.0290   0.05544   0.05156  -0.1610  0.7934  0.0580  -2.4849   0.0000   6.1406
 -12.400   0.0701   0.05514   0.05126  -0.1639  0.7916  0.0600  -2.3450   0.0000   2.7241
 -12.200   0.1231   0.05434   0.05046  -0.1685  0.7902  0.0631  -2.1810   0.0000   1.6929
  -9.200   0.5115   0.06470   0.06122  -0.1824  0.7257  0.1156  -0.9188   0.0000   0.6133
  -9.000   0.5695   0.06363   0.06014  -0.1873  0.7171  0.1274  -0.8293   0.0000   0.5843
  -8.800   0.6615   0.06069   0.05713  -0.1970  0.7053  0.1488  -0.9439   0.0000   0.5518
  -8.600   0.7448   0.05864   0.05466  -0.2059  0.6379  0.1775  -1.0915   0.0000   0.5296
  -8.400   0.7577   0.06053   0.05633  -0.2049  0.5838  0.1916  -1.0715   0.0000   0.5230
  -8.200   0.7823   0.06218   0.05785  -0.2058  0.5449  0.2132  -1.0643   0.0000   0.5149
  -8.000   0.8149   0.06388   0.05946  -0.2078  0.5112  0.2449  -1.0670   0.0000   0.5062
  -7.600   0.9080   0.06837   0.06387  -0.2164  0.4566  0.3412  -1.1477   0.0000   0.4883
  -7.400   0.9455   0.07002   0.06548  -0.2190  0.4347  0.3730  -1.1896   0.0000   0.4811
  -7.200   0.9766   0.07127   0.06665  -0.2206  0.4157  0.3914  -1.2264   0.0000   0.4748
  -7.000   1.0044   0.07229   0.06760  -0.2215  0.3995  0.4045  -1.2609   0.0000   0.4691
  -6.800   1.0287   0.07306   0.06831  -0.2219  0.3856  0.4148  -1.2926   0.0000   0.4639
  -6.600   1.0549   0.07394   0.06914  -0.2226  0.3735  0.4253  -1.3262   0.0000   0.4588
  -6.400   1.0771   0.07457   0.06970  -0.2227  0.3628  0.4325  -1.3565   0.0000   0.4541
  -6.200   1.1035   0.07545   0.07056  -0.2234  0.3544  0.4417  -1.3907   0.0000   0.4494
  -6.000   1.1268   0.07615   0.07121  -0.2236  0.3460  0.4494  -1.4224   0.0000   0.4450
  -5.800   1.1507   0.07687   0.07191  -0.2238  0.3398  0.4565  -1.4547   0.0000   0.4408
  -5.600   1.1753   0.07766   0.07267  -0.2242  0.3328  0.4664  -1.4879   0.0000   0.4367
  -5.400   1.1984   0.07836   0.07332  -0.2244  0.3258  0.4737  -1.5218   0.0000   0.4328
  -5.200   1.2198   0.07893   0.07388  -0.2242  0.3203  0.4789  -1.5554   0.0000   0.4291
  -5.000   1.2405   0.07947   0.07439  -0.2240  0.3139  0.4832  -1.5886   0.0000   0.4255
  -4.800   1.2610   0.08000   0.07487  -0.2237  0.3079  0.4866  -1.6216   0.0000   0.4220
  -4.600   1.2816   0.08051   0.07536  -0.2235  0.3036  0.4892  -1.6550   0.0000   0.4186
  -4.400   1.3006   0.08093   0.07577  -0.2229  0.2988  0.4920  -1.6874   0.0000   0.4153
  -4.200   1.3197   0.08138   0.07620  -0.2225  0.2942  0.4953  -1.7212   0.0000   0.4122
  -4.000   1.3392   0.08185   0.07665  -0.2220  0.2900  0.4987  -1.7554   0.0000   0.4091
  -3.800   1.3590   0.08233   0.07712  -0.2216  0.2868  0.5020  -1.7902   0.0000   0.4060
  -3.600   1.3784   0.08280   0.07757  -0.2212  0.2827  0.5049  -1.8248   0.0000   0.4031
  -3.400   1.3978   0.08328   0.07802  -0.2207  0.2783  0.5075  -1.8595   0.0000   0.4002
  -3.200   1.4164   0.08372   0.07843  -0.2201  0.2740  0.5102  -1.8935   0.0000   0.3974
  -3.000   1.4346   0.08410   0.07882  -0.2195  0.2715  0.5134  -1.9273   0.0000   0.3947
  -2.800   1.4528   0.08449   0.07922  -0.2188  0.2688  0.5163  -1.9612   0.0000   0.3920
  -2.600   1.4711   0.08490   0.07962  -0.2182  0.2654  0.5191  -1.9985   0.0000   0.3894
  -2.400   1.4893   0.08534   0.08003  -0.2176  0.2614  0.5218  -2.0361   0.0000   0.3869
  -2.000   1.5267   0.08628   0.08093  -0.2165  0.2541  0.5270  -2.1127   0.0000   0.3819
  -1.800   1.5445   0.08668   0.08134  -0.2158  0.2509  0.5296  -2.1503   0.0000   0.3795
  -1.600   1.5612   0.08703   0.08168  -0.2149  0.2475  0.5325  -2.1867   0.0000   0.3772
  -1.400   1.5780   0.08740   0.08204  -0.2141  0.2442  0.5353  -2.2234   0.0000   0.3749
  -1.200   1.5949   0.08780   0.08242  -0.2133  0.2408  0.5380  -2.2621   0.0000   0.3726
  -1.000   1.6126   0.08822   0.08285  -0.2125  0.2386  0.5407  -2.3019   0.0000   0.3704
  -0.800   1.6306   0.08868   0.08331  -0.2119  0.2360  0.5433  -2.3423   0.0000   0.3682
  -0.600   1.6488   0.08918   0.08380  -0.2113  0.2326  0.5456  -2.3832   0.0000   0.3660
  -0.400   1.6663   0.08968   0.08429  -0.2106  0.2291  0.5479  -2.4235   0.0000   0.3640
  -0.200   1.6808   0.09001   0.08461  -0.2094  0.2259  0.5506  -2.4601   0.0000   0.3618
   0.000   1.6958   0.09037   0.08498  -0.2083  0.2235  0.5532  -2.5005   0.0000   0.3598
   0.200   1.7112   0.09076   0.08538  -0.2073  0.2209  0.5558  -2.5420   0.0000   0.3577
   0.400   1.7269   0.09119   0.08581  -0.2063  0.2176  0.5582  -2.5841   0.0000   0.3558
   0.600   1.7426   0.09166   0.08627  -0.2054  0.2139  0.5607  -2.6265   0.0000   0.3538
   0.800   1.7586   0.09216   0.08675  -0.2045  0.2104  0.5630  -2.6694   0.0000   0.3519
   1.000   1.7757   0.09270   0.08729  -0.2037  0.2082  0.5654  -2.7149   0.0000   0.3500
   1.200   1.7917   0.09315   0.08775  -0.2028  0.2059  0.5677  -2.7620   0.0000   0.3481
   1.400   1.8051   0.09343   0.08805  -0.2015  0.2032  0.5701  -2.8053   0.0000   0.3462
   1.600   1.8184   0.09376   0.08837  -0.2003  0.1998  0.5723  -2.8488   0.0000   0.3443
   1.800   1.8319   0.09413   0.08874  -0.1990  0.1963  0.5744  -2.8927   0.0000   0.3425
   2.000   1.8461   0.09452   0.08913  -0.1979  0.1937  0.5765  -2.9379   0.0000   0.3407
   2.200   1.8610   0.09494   0.08956  -0.1968  0.1914  0.5788  -2.9849   0.0000   0.3389
   2.400   1.8761   0.09541   0.09004  -0.1959  0.1887  0.5812  -3.0366   0.0000   0.3372
   2.600   1.8918   0.09599   0.09061  -0.1950  0.1853  0.5837  -3.0909   0.0000   0.3355
   2.800   1.9078   0.09668   0.09127  -0.1942  0.1812  0.5860  -3.1462   0.0000   0.3338
   3.000   1.9198   0.09697   0.09158  -0.1928  0.1787  0.5879  -3.1946   0.0000   0.3321
   3.200   1.9314   0.09727   0.09189  -0.1913  0.1758  0.5897  -3.2424   0.0000   0.3304
   3.400   1.9426   0.09766   0.09229  -0.1898  0.1728  0.5914  -3.2907   0.0000   0.3287
   3.600   1.9532   0.09815   0.09278  -0.1883  0.1698  0.5931  -3.3443   0.0000   0.3270
   3.800   1.9643   0.09867   0.09331  -0.1869  0.1668  0.5949  -3.3999   0.0000   0.3253
   4.000   1.9764   0.09918   0.09384  -0.1856  0.1642  0.5970  -3.4579   0.0000   0.3237
   4.200   1.9889   0.09976   0.09442  -0.1843  0.1606  0.5994  -3.5170   0.0000   0.3221
   4.400   2.0018   0.10048   0.09512  -0.1832  0.1567  0.6018  -3.5825   0.0000   0.3205
   4.600   2.0160   0.10123   0.09586  -0.1823  0.1534  0.6041  -3.6529   0.0000   0.3190
   4.800   2.0297   0.10188   0.09653  -0.1813  0.1506  0.6059  -3.7224   0.0000   0.3174
   5.000   2.0386   0.10228   0.09694  -0.1796  0.1477  0.6073  -3.7815   0.0000   0.3158
   5.200   2.0467   0.10273   0.09739  -0.1779  0.1444  0.6087  -3.8395   0.0000   0.3142
   5.400   2.0548   0.10323   0.09790  -0.1761  0.1414  0.6102  -3.9035   0.0000   0.3126
   5.600   2.0625   0.10381   0.09850  -0.1744  0.1384  0.6117  -3.9676   0.0000   0.3111
   5.800   2.0699   0.10447   0.09917  -0.1727  0.1347  0.6133  -4.0312   0.0000   0.3095
   6.000   2.0774   0.10520   0.09989  -0.1711  0.1310  0.6149  -4.0952   0.0000   0.3080
   6.200   2.0872   0.10584   0.10055  -0.1697  0.1282  0.6166  -4.1653   0.0000   0.3065
   6.400   2.0968   0.10661   0.10132  -0.1684  0.1246  0.6184  -4.2357   0.0000   0.3050
   6.600   2.1059   0.10752   0.10222  -0.1671  0.1209  0.6203  -4.3071   0.0000   0.3036
   6.800   2.1156   0.10850   0.10322  -0.1659  0.1182  0.6222  -4.3863   0.0000   0.3022
   7.000   2.1257   0.10958   0.10431  -0.1648  0.1150  0.6241  -4.4671   0.0000   0.3008
   7.200   2.1324   0.11055   0.10527  -0.1633  0.1117  0.6255  -4.5387   0.0000   0.2994
   7.400   2.1369   0.11125   0.10599  -0.1615  0.1090  0.6267  -4.6038   0.0000   0.2979
   7.600   2.1420   0.11191   0.10669  -0.1598  0.1063  0.6278  -4.6709   0.0000   0.2964
   7.800   2.1448   0.11287   0.10766  -0.1580  0.1032  0.6289  -4.7321   0.0000   0.2950
   8.000   2.1472   0.11389   0.10869  -0.1562  0.1002  0.6299  -4.7923   0.0000   0.2936
   8.200   2.1519   0.11470   0.10953  -0.1546  0.0977  0.6309  -4.8661   0.0000   0.2922
   8.400   2.1551   0.11573   0.11058  -0.1531  0.0947  0.6319  -4.9358   0.0000   0.2908
   8.600   2.1565   0.11699   0.11185  -0.1515  0.0917  0.6329  -5.0005   0.0000   0.2895
   8.800   2.1608   0.11804   0.11292  -0.1501  0.0892  0.6342  -5.0739   0.0000   0.2881
   9.000   2.1636   0.11931   0.11423  -0.1488  0.0865  0.6355  -5.1435   0.0000   0.2869
   9.200   2.1656   0.12073   0.11566  -0.1475  0.0837  0.6369  -5.2109   0.0000   0.2857
   9.400   2.1691   0.12216   0.11711  -0.1464  0.0814  0.6387  -5.2828   0.0000   0.2845
   9.600   2.1733   0.12365   0.11863  -0.1456  0.0786  0.6408  -5.3579   0.0000   0.2834
   9.800   2.1760   0.12556   0.12055  -0.1449  0.0756  0.6429  -5.4288   0.0000   0.2823
  10.000   2.1795   0.12716   0.12218  -0.1442  0.0732  0.6444  -5.5016   0.0000   0.2813
  10.200   2.1778   0.12860   0.12366  -0.1430  0.0708  0.6451  -5.5563   0.0000   0.2802
  10.400   2.1745   0.13025   0.12533  -0.1420  0.0685  0.6457  -5.6056   0.0000   0.2792
  10.600   2.1734   0.13166   0.12678  -0.1410  0.0666  0.6464  -5.6619   0.0000   0.2781
  10.800   2.1711   0.13324   0.12841  -0.1401  0.0646  0.6470  -5.7140   0.0000   0.2772
  11.000   2.1679   0.13491   0.13012  -0.1394  0.0626  0.6476  -5.7629   0.0000   0.2763
  11.200   2.1646   0.13661   0.13186  -0.1388  0.0609  0.6482  -5.8107   0.0000   0.2754
  11.400   2.1618   0.13826   0.13357  -0.1383  0.0593  0.6489  -5.8617   0.0000   0.2746
  11.600   2.1583   0.14000   0.13535  -0.1379  0.0575  0.6496  -5.9102   0.0000   0.2738
  11.800   2.1536   0.14192   0.13731  -0.1377  0.0558  0.6504  -5.9541   0.0000   0.2732
  12.000   2.1495   0.14383   0.13927  -0.1377  0.0544  0.6512  -6.0012   0.0000   0.2726
  12.200   2.1464   0.14564   0.14114  -0.1377  0.0529  0.6520  -6.0516   0.0000   0.2720
  12.400   2.1423   0.14762   0.14317  -0.1379  0.0514  0.6529  -6.0975   0.0000   0.2715
  12.600   2.1366   0.14983   0.14543  -0.1384  0.0501  0.6537  -6.1366   0.0000   0.2711
  12.800   2.1327   0.15188   0.14753  -0.1390  0.0489  0.6547  -6.1821   0.0000   0.2707
  13.000   2.1299   0.15385   0.14956  -0.1396  0.0477  0.6558  -6.2333   0.0000   0.2704
  13.200   2.1255   0.15609   0.15186  -0.1405  0.0464  0.6570  -6.2792   0.0000   0.2702
  13.400   2.1200   0.15857   0.15438  -0.1418  0.0452  0.6583  -6.3194   0.0000   0.2701
  13.600   2.1162   0.16101   0.15689  -0.1432  0.0440  0.6599  -6.3660   0.0000   0.2701
  13.800   2.1170   0.16360   0.15952  -0.1450  0.0428  0.6624  -6.4323   0.0000   0.2701
  14.000   2.1113   0.16606   0.16204  -0.1465  0.0416  0.6635  -6.4689   0.0000   0.2701
  14.200   2.1026   0.16847   0.16452  -0.1480  0.0407  0.6639  -6.4913   0.0000   0.2703
  14.600   2.0874   0.17301   0.16917  -0.1508  0.0389  0.6648  -6.5439   0.0000   0.2705
  14.800   2.0795   0.17536   0.17159  -0.1524  0.0381  0.6652  -6.5670   0.0000   0.2707
  15.000   2.0715   0.17773   0.17402  -0.1541  0.0372  0.6656  -6.5889   0.0000   0.2709
  15.200   2.0633   0.18015   0.17650  -0.1560  0.0363  0.6660  -6.6086   0.0000   0.2712
  15.400   2.0535   0.18284   0.17925  -0.1582  0.0355  0.6664  -6.6184   0.0000   0.2718
  15.600   2.0468   0.18509   0.18156  -0.1600  0.0348  0.6668  -6.6437   0.0000   0.2720
  15.800   2.0400   0.18738   0.18392  -0.1619  0.0340  0.6672  -6.6675   0.0000   0.2723
  16.000   2.0321   0.18986   0.18646  -0.1641  0.0332  0.6677  -6.6842   0.0000   0.2728
  16.200   2.0251   0.19222   0.18886  -0.1661  0.0324  0.6681  -6.7051   0.0000   0.2732
  16.400   2.0159   0.19492   0.19162  -0.1687  0.0317  0.6686  -6.7120   0.0000   0.2739
  16.600   2.0105   0.19705   0.19380  -0.1706  0.0310  0.6691  -6.7400   0.0000   0.2742
  16.800   2.0036   0.19942   0.19623  -0.1729  0.0303  0.6696  -6.7582   0.0000   0.2747
  17.000   1.9984   0.20154   0.19839  -0.1749  0.0296  0.6702  -6.7855   0.0000   0.2750
  17.200   1.9910   0.20400   0.20091  -0.1774  0.0289  0.6708  -6.7988   0.0000   0.2756
  17.400   1.9848   0.20631   0.20326  -0.1798  0.0282  0.6714  -6.8176   0.0000   0.2761
  17.600   1.9793   0.20850   0.20550  -0.1820  0.0276  0.6721  -6.8405   0.0000   0.2766
  17.800   1.9742   0.21068   0.20772  -0.1843  0.0270  0.6728  -6.8643   0.0000   0.2770
  18.000   1.9707   0.21262   0.20971  -0.1863  0.0263  0.6737  -6.8974   0.0000   0.2773
  18.200   1.9647   0.21499   0.21213  -0.1889  0.0257  0.6747  -6.9134   0.0000   0.2779
  18.400   1.9600   0.21723   0.21441  -0.1915  0.0250  0.6759  -6.9363   0.0000   0.2784
  18.600   1.9569   0.21943   0.21664  -0.1940  0.0244  0.6777  -6.9672   0.0000   0.2789
  18.800   1.9585   0.22234   0.21959  -0.1978  0.0237  0.6818  -7.0168   0.0000   0.2797
  19.000   1.9544   0.22408   0.22137  -0.1997  0.0231  0.6822  -7.0452   0.0000   0.2799
  19.200   1.9496   0.22596   0.22329  -0.2019  0.0225  0.6826  -7.0673   0.0000   0.2803
  19.400   1.9427   0.22821   0.22558  -0.2046  0.0219  0.6829  -7.0731   0.0000   0.2810
  19.600   1.9383   0.23003   0.22742  -0.2067  0.0214  0.6832  -7.0960   0.0000   0.2814
  19.800   1.9352   0.23160   0.22904  -0.2085  0.0210  0.6836  -7.1286   0.0000   0.2815
  20.000   1.9301   0.23353   0.23102  -0.2109  0.0205  0.6839  -7.1445   0.0000   0.2820
  20.200   1.9266   0.23517   0.23269  -0.2128  0.0200  0.6842  -7.1725   0.0000   0.2822
  20.400   1.9231   0.23682   0.23438  -0.2149  0.0195  0.6846  -7.1993   0.0000   0.2825
  20.600   1.9171   0.23893   0.23653  -0.2176  0.0191  0.6849  -7.2053   0.0000   0.2832
  20.800   1.9130   0.24068   0.23831  -0.2198  0.0187  0.6853  -7.2260   0.0000   0.2836
  21.000   1.9108   0.24209   0.23975  -0.2216  0.0183  0.6857  -7.2612   0.0000   0.2837
  21.200   1.9072   0.24387   0.24158  -0.2237  0.0179  0.6861  -7.2843   0.0000   0.2840


