xflr5 v6.47

 Calculated polar for: NACA24018_theta30_Ku4.5_Kl0.5_d0.24_delta7.31

 1 1 Reynolds number fixed          Mach number fixed         

 xtrf =   1.000 (top)        1.000 (bottom)
 Mach =   0.000     Re =     2.200 e 6     Ncrit =   5.000

  alpha     CL        CD       CDp       Cm    Top Xtr Bot Xtr   Cpmin    Chinge    XCp    
 ------- -------- --------- --------- -------- ------- ------- -------- --------- ---------
 -15.000  -0.5849   0.03051   0.02637  -0.1352  0.8549  0.0325  -5.0790   0.0000  -0.0122
 -14.800  -0.5597   0.03048   0.02634  -0.1364  0.8549  0.0330  -4.9324   0.0000  -0.0252
 -14.600  -0.5340   0.03047   0.02634  -0.1377  0.8549  0.0336  -4.7901   0.0000  -0.0400
 -14.400  -0.5082   0.03049   0.02637  -0.1390  0.8549  0.0343  -4.6499   0.0000  -0.0562
 -14.200  -0.4828   0.03055   0.02643  -0.1401  0.8549  0.0350  -4.5119   0.0000  -0.0737
 -14.000  -0.4575   0.03063   0.02652  -0.1412  0.8549  0.0357  -4.3757   0.0000  -0.0930
 -13.800  -0.4321   0.03073   0.02663  -0.1422  0.8549  0.0362  -4.2409   0.0000  -0.1144
 -13.600  -0.4063   0.03085   0.02675  -0.1433  0.8549  0.0367  -4.1064   0.0000  -0.1393
 -13.400  -0.3787   0.03094   0.02686  -0.1447  0.8549  0.0376  -3.9686   0.0000  -0.1702
 -13.200  -0.3468   0.03087   0.02681  -0.1468  0.8549  0.0384  -3.8198   0.0000  -0.2135
 -13.000  -0.3484   0.03171   0.02765  -0.1437  0.8515  0.0388  -3.7675   0.0000  -0.2016
 -12.800  -0.3182   0.03159   0.02755  -0.1453  0.8499  0.0397  -3.6259   0.0000  -0.2483
 -12.600  -0.2830   0.03130   0.02725  -0.1477  0.8489  0.0405  -3.4734   0.0000  -0.3171
 -12.400  -0.2441   0.03093   0.02691  -0.1507  0.8481  0.0418  -3.3192   0.0000  -0.4181
  -9.800   0.1267   0.03255   0.02874  -0.1679  0.8233  0.0606  -1.8691   0.0000   1.6369
  -9.600   0.1605   0.03252   0.02871  -0.1699  0.7892  0.0632  -1.7644   0.0000   1.3558
  -9.400   0.2652   0.02906   0.02513  -0.1833  0.7774  0.0690  -1.5392   0.0000   0.9686
  -9.200   0.2617   0.03023   0.02579  -0.1792  0.6707  0.0702  -1.5082   0.0000   0.9611
  -9.000   0.2790   0.03085   0.02628  -0.1786  0.6373  0.0726  -1.4424   0.0000   0.9139
  -8.800   0.3023   0.03132   0.02667  -0.1791  0.6100  0.0762  -1.3674   0.0000   0.8631
  -8.600   0.3254   0.03171   0.02696  -0.1794  0.5839  0.0789  -1.2938   0.0000   0.8197
  -8.400   0.3510   0.03207   0.02723  -0.1802  0.5589  0.0828  -1.2174   0.0000   0.7796
  -8.200   0.3763   0.03236   0.02743  -0.1809  0.5348  0.0862  -1.1427   0.0000   0.7450
  -8.000   0.4040   0.03264   0.02764  -0.1820  0.5118  0.0916  -1.0653   0.0000   0.7131
  -7.800   0.4310   0.03289   0.02783  -0.1830  0.4916  0.0962  -0.9963   0.0000   0.6857
  -7.600   0.4578   0.03318   0.02805  -0.1839  0.4723  0.1014  -0.9297   0.0000   0.6615
  -7.400   0.4855   0.03350   0.02832  -0.1850  0.4565  0.1078  -0.8630   0.0000   0.6397
  -7.200   0.5130   0.03381   0.02859  -0.1860  0.4413  0.1150  -0.8488   0.0000   0.6203
  -7.000   0.5406   0.03412   0.02886  -0.1871  0.4256  0.1228  -0.8761   0.0000   0.6028
  -6.800   0.5697   0.03447   0.02918  -0.1884  0.4109  0.1333  -0.9060   0.0000   0.5866
  -6.600   0.5991   0.03484   0.02953  -0.1898  0.3976  0.1450  -0.9362   0.0000   0.5718
  -6.200   0.6638   0.03576   0.03044  -0.1936  0.3750  0.1827  -1.0015   0.0000   0.5453
  -6.000   0.6967   0.03625   0.03095  -0.1956  0.3650  0.2054  -1.0349   0.0000   0.5337
  -5.800   0.7346   0.03690   0.03162  -0.1985  0.3533  0.2408  -1.0721   0.0000   0.5226
  -5.600   0.7882   0.03804   0.03289  -0.2043  0.3419  0.3130  -1.1212   0.0000   0.5110
  -5.400   0.8277   0.03880   0.03368  -0.2074  0.3316  0.3526  -1.1630   0.0000   0.5019
  -5.200   0.8628   0.03944   0.03435  -0.2098  0.3248  0.3800  -1.2025   0.0000   0.4939
  -5.000   0.8941   0.03997   0.03487  -0.2114  0.3174  0.4000  -1.2393   0.0000   0.4868
  -4.800   0.9245   0.04048   0.03539  -0.2128  0.3126  0.4163  -1.2755   0.0000   0.4801
  -4.600   0.9504   0.04085   0.03575  -0.2134  0.3086  0.4260  -1.3084   0.0000   0.4741
  -4.400   0.9782   0.04129   0.03618  -0.2144  0.3037  0.4374  -1.3431   0.0000   0.4683
  -4.200   1.0074   0.04177   0.03666  -0.2156  0.2975  0.4524  -1.3791   0.0000   0.4628
  -4.000   1.0385   0.04235   0.03725  -0.2171  0.2937  0.4711  -1.4170   0.0000   0.4575
  -3.800   1.0674   0.04285   0.03776  -0.2182  0.2891  0.4864  -1.4546   0.0000   0.4525
  -3.600   1.0934   0.04326   0.03814  -0.2188  0.2844  0.4956  -1.4902   0.0000   0.4479
  -3.400   1.1152   0.04352   0.03837  -0.2187  0.2799  0.4992  -1.5222   0.0000   0.4435
  -3.200   1.1393   0.04387   0.03872  -0.2189  0.2774  0.5036  -1.5565   0.0000   0.4392
  -3.000   1.1636   0.04424   0.03908  -0.2192  0.2736  0.5084  -1.5912   0.0000   0.4352
  -2.800   1.1863   0.04454   0.03936  -0.2192  0.2691  0.5125  -1.6246   0.0000   0.4312
  -2.600   1.2080   0.04482   0.03961  -0.2191  0.2643  0.5161  -1.6597   0.0000   0.4275
  -2.400   1.2293   0.04509   0.03986  -0.2188  0.2618  0.5191  -1.6950   0.0000   0.4238
  -2.200   1.2534   0.04547   0.04025  -0.2191  0.2590  0.5240  -1.7335   0.0000   0.4203
  -2.000   1.2763   0.04581   0.04058  -0.2191  0.2560  0.5282  -1.7709   0.0000   0.4169
  -1.800   1.2979   0.04611   0.04086  -0.2189  0.2526  0.5318  -1.8073   0.0000   0.4136
  -1.600   1.3188   0.04639   0.04111  -0.2186  0.2485  0.5350  -1.8431   0.0000   0.4103
  -1.400   1.3394   0.04665   0.04137  -0.2182  0.2461  0.5376  -1.8787   0.0000   0.4072
  -1.200   1.3615   0.04699   0.04170  -0.2181  0.2435  0.5412  -1.9174   0.0000   0.4042
  -1.000   1.3839   0.04734   0.04204  -0.2180  0.2404  0.5452  -1.9570   0.0000   0.4013
  -0.800   1.4055   0.04767   0.04236  -0.2178  0.2371  0.5494  -1.9960   0.0000   0.3984
  -0.600   1.4262   0.04797   0.04263  -0.2175  0.2330  0.5533  -2.0341   0.0000   0.3956
  -0.400   1.4464   0.04825   0.04291  -0.2170  0.2308  0.5563  -2.0729   0.0000   0.3929
  -0.200   1.4674   0.04857   0.04323  -0.2167  0.2284  0.5594  -2.1135   0.0000   0.3902
   0.000   1.4894   0.04895   0.04361  -0.2166  0.2252  0.5634  -2.1555   0.0000   0.3876
   0.200   1.5105   0.04931   0.04394  -0.2163  0.2212  0.5675  -2.1966   0.0000   0.3851
   0.400   1.5308   0.04964   0.04425  -0.2159  0.2169  0.5713  -2.2383   0.0000   0.3826
   0.600   1.5507   0.04995   0.04456  -0.2154  0.2146  0.5744  -2.2820   0.0000   0.3802
   0.800   1.5699   0.05024   0.04485  -0.2148  0.2121  0.5767  -2.3252   0.0000   0.3778
   1.000   1.5910   0.05063   0.04523  -0.2145  0.2093  0.5803  -2.3708   0.0000   0.3755
   1.200   1.6112   0.05100   0.04559  -0.2141  0.2063  0.5837  -2.4157   0.0000   0.3732
   1.400   1.6309   0.05135   0.04593  -0.2135  0.2030  0.5872  -2.4600   0.0000   0.3710
   1.600   1.6505   0.05169   0.04627  -0.2130  0.2016  0.5907  -2.5045   0.0000   0.3688
   1.800   1.6695   0.05201   0.04660  -0.2124  0.1997  0.5937  -2.5486   0.0000   0.3666
   2.000   1.6879   0.05232   0.04691  -0.2116  0.1970  0.5960  -2.5920   0.0000   0.3645
   2.200   1.7073   0.05272   0.04729  -0.2111  0.1931  0.5995  -2.6370   0.0000   0.3624
   2.400   1.7262   0.05312   0.04768  -0.2104  0.1889  0.6029  -2.6816   0.0000   0.3604
   2.600   1.7452   0.05350   0.04806  -0.2098  0.1867  0.6064  -2.7281   0.0000   0.3584
   2.800   1.7636   0.05387   0.04843  -0.2091  0.1839  0.6097  -2.7780   0.0000   0.3564
   3.000   1.7811   0.05424   0.04879  -0.2082  0.1805  0.6124  -2.8270   0.0000   0.3544
   3.200   1.7979   0.05463   0.04916  -0.2072  0.1763  0.6144  -2.8756   0.0000   0.3524
   3.400   1.8159   0.05503   0.04956  -0.2064  0.1740  0.6171  -2.9297   0.0000   0.3505
   3.600   1.8340   0.05549   0.05002  -0.2057  0.1712  0.6205  -2.9845   0.0000   0.3486
   3.800   1.8508   0.05598   0.05051  -0.2047  0.1679  0.6237  -3.0377   0.0000   0.3467
   4.000   1.8667   0.05650   0.05101  -0.2036  0.1641  0.6266  -3.0897   0.0000   0.3449
   4.200   1.8830   0.05697   0.05149  -0.2026  0.1619  0.6292  -3.1438   0.0000   0.3430
   4.400   1.8991   0.05744   0.05197  -0.2015  0.1595  0.6315  -3.2006   0.0000   0.3412
   4.600   1.9145   0.05794   0.05246  -0.2004  0.1561  0.6336  -3.2567   0.0000   0.3394
   4.800   1.9292   0.05848   0.05298  -0.1991  0.1519  0.6359  -3.3121   0.0000   0.3376
   5.000   1.9453   0.05898   0.05349  -0.1981  0.1492  0.6389  -3.3702   0.0000   0.3358
   5.200   1.9606   0.05950   0.05401  -0.1969  0.1459  0.6415  -3.4292   0.0000   0.3341
   5.400   1.9747   0.06007   0.05456  -0.1956  0.1420  0.6439  -3.4896   0.0000   0.3323
   5.600   1.9891   0.06061   0.05510  -0.1944  0.1387  0.6461  -3.5549   0.0000   0.3306
   5.800   2.0034   0.06117   0.05566  -0.1931  0.1351  0.6485  -3.6243   0.0000   0.3289
   6.000   2.0164   0.06183   0.05629  -0.1916  0.1309  0.6507  -3.6936   0.0000   0.3272
   6.200   2.0297   0.06247   0.05694  -0.1902  0.1280  0.6525  -3.7645   0.0000   0.3255
   6.400   2.0423   0.06316   0.05764  -0.1888  0.1253  0.6542  -3.8344   0.0000   0.3238
   6.600   2.0538   0.06393   0.05840  -0.1871  0.1219  0.6566  -3.9024   0.0000   0.3221
   6.800   2.0651   0.06470   0.05917  -0.1855  0.1185  0.6587  -3.9704   0.0000   0.3204
   7.000   2.0775   0.06537   0.05986  -0.1840  0.1159  0.6608  -4.0442   0.0000   0.3188
   7.200   2.0885   0.06615   0.06063  -0.1824  0.1122  0.6631  -4.1199   0.0000   0.3171
   7.400   2.0990   0.06698   0.06145  -0.1807  0.1082  0.6653  -4.1946   0.0000   0.3155
   7.600   2.1095   0.06782   0.06229  -0.1791  0.1045  0.6674  -4.2701   0.0000   0.3138
   7.800   2.1168   0.06894   0.06340  -0.1770  0.1004  0.6691  -4.3385   0.0000   0.3121
   8.000   2.1269   0.06985   0.06432  -0.1754  0.0981  0.6707  -4.4195   0.0000   0.3105
   8.200   2.1367   0.07079   0.06527  -0.1737  0.0953  0.6721  -4.5025   0.0000   0.3089
   8.400   2.1446   0.07184   0.06631  -0.1719  0.0920  0.6737  -4.5810   0.0000   0.3073
   8.600   2.1536   0.07275   0.06725  -0.1701  0.0894  0.6758  -4.6626   0.0000   0.3058
   8.800   2.1586   0.07404   0.06854  -0.1680  0.0857  0.6777  -4.7347   0.0000   0.3041
   9.000   2.1641   0.07527   0.06978  -0.1659  0.0823  0.6793  -4.8081   0.0000   0.3025
   9.200   2.1703   0.07644   0.07096  -0.1640  0.0789  0.6809  -4.8840   0.0000   0.3010
   9.400   2.1746   0.07783   0.07234  -0.1620  0.0759  0.6824  -4.9547   0.0000   0.2994
   9.600   2.1801   0.07911   0.07366  -0.1601  0.0737  0.6841  -5.0294   0.0000   0.2978
   9.800   2.1853   0.08044   0.07500  -0.1582  0.0712  0.6858  -5.1032   0.0000   0.2963
  10.000   2.1891   0.08194   0.07651  -0.1563  0.0690  0.6874  -5.1735   0.0000   0.2948
  10.200   2.1942   0.08334   0.07795  -0.1546  0.0672  0.6889  -5.2478   0.0000   0.2934
  10.400   2.1984   0.08484   0.07946  -0.1528  0.0649  0.6901  -5.3198   0.0000   0.2920
  10.600   2.2001   0.08662   0.08126  -0.1510  0.0628  0.6911  -5.3916   0.0000   0.2905
  10.800   2.2041   0.08812   0.08279  -0.1494  0.0612  0.6921  -5.4707   0.0000   0.2892
  11.000   2.2055   0.08978   0.08449  -0.1476  0.0594  0.6935  -5.5417   0.0000   0.2878
  11.200   2.2047   0.09172   0.08646  -0.1458  0.0575  0.6948  -5.6059   0.0000   0.2865
  11.400   2.2060   0.09346   0.08824  -0.1443  0.0559  0.6963  -5.6766   0.0000   0.2852
  11.600   2.2062   0.09532   0.09013  -0.1428  0.0539  0.6977  -5.7437   0.0000   0.2840
  11.800   2.2033   0.09755   0.09239  -0.1413  0.0518  0.6991  -5.8008   0.0000   0.2828
  12.000   2.2028   0.09956   0.09444  -0.1401  0.0502  0.7005  -5.8652   0.0000   0.2817
  12.200   2.2016   0.10166   0.09658  -0.1389  0.0485  0.7019  -5.9271   0.0000   0.2806
  12.400   2.1989   0.10397   0.09893  -0.1379  0.0469  0.7031  -5.9835   0.0000   0.2796
  12.600   2.1976   0.10614   0.10115  -0.1371  0.0458  0.7043  -6.0447   0.0000   0.2787
  12.800   2.1962   0.10836   0.10341  -0.1364  0.0444  0.7054  -6.1049   0.0000   0.2778
  13.000   2.1934   0.11076   0.10585  -0.1358  0.0430  0.7064  -6.1598   0.0000   0.2770
  13.200   2.1899   0.11326   0.10840  -0.1354  0.0417  0.7074  -6.2118   0.0000   0.2762
  13.400   2.1876   0.11566   0.11085  -0.1351  0.0406  0.7083  -6.2672   0.0000   0.2755
  13.600   2.1841   0.11821   0.11344  -0.1351  0.0394  0.7091  -6.3181   0.0000   0.2749
  13.800   2.1797   0.12091   0.11619  -0.1352  0.0383  0.7099  -6.3645   0.0000   0.2745
  14.000   2.1754   0.12347   0.11881  -0.1353  0.0374  0.7109  -6.4108   0.0000   0.2740
  14.200   2.1715   0.12585   0.12124  -0.1354  0.0366  0.7122  -6.4579   0.0000   0.2735
  14.400   2.1662   0.12845   0.12390  -0.1358  0.0359  0.7133  -6.4991   0.0000   0.2731
  14.600   2.1601   0.13118   0.12669  -0.1363  0.0351  0.7144  -6.5359   0.0000   0.2728
  14.800   2.1532   0.13402   0.12959  -0.1371  0.0343  0.7153  -6.5688   0.0000   0.2727
  15.000   2.1462   0.13689   0.13252  -0.1380  0.0336  0.7162  -6.6001   0.0000   0.2726
  15.200   2.1417   0.13943   0.13512  -0.1388  0.0331  0.7172  -6.6411   0.0000   0.2724
  15.400   2.1354   0.14225   0.13801  -0.1399  0.0324  0.7181  -6.6751   0.0000   0.2724
  15.600   2.1281   0.14524   0.14106  -0.1412  0.0317  0.7190  -6.7074   0.0000   0.2725
  15.800   2.1198   0.14838   0.14426  -0.1428  0.0310  0.7200  -6.7342   0.0000   0.2727
  16.000   2.1109   0.15162   0.14757  -0.1446  0.0303  0.7210  -6.7569   0.0000   0.2731
  16.200   2.1043   0.15455   0.15056  -0.1462  0.0297  0.7221  -6.7895   0.0000   0.2733
  16.400   2.0974   0.15758   0.15364  -0.1480  0.0291  0.7231  -6.8192   0.0000   0.2736
  16.600   2.0895   0.16078   0.15691  -0.1501  0.0285  0.7241  -6.8426   0.0000   0.2741
  16.800   2.0814   0.16400   0.16019  -0.1522  0.0279  0.7249  -6.8642   0.0000   0.2746
  17.000   2.0739   0.16712   0.16337  -0.1544  0.0273  0.7258  -6.8878   0.0000   0.2751
  17.200   2.0645   0.17056   0.16687  -0.1570  0.0268  0.7265  -6.8998   0.0000   0.2759
  17.400   2.0570   0.17371   0.17008  -0.1594  0.0264  0.7271  -6.9206   0.0000   0.2765
  17.600   2.0521   0.17644   0.17286  -0.1614  0.0259  0.7278  -6.9550   0.0000   0.2769
  17.800   2.0440   0.17969   0.17617  -0.1640  0.0254  0.7283  -6.9700   0.0000   0.2776
  18.000   2.0375   0.18253   0.17907  -0.1662  0.0249  0.7291  -6.9939   0.0000   0.2782
  18.200   2.0287   0.18567   0.18226  -0.1688  0.0244  0.7299  -7.0038   0.0000   0.2790
  18.400   2.0200   0.18878   0.18543  -0.1714  0.0240  0.7307  -7.0135   0.0000   0.2798
  18.600   2.0130   0.19163   0.18833  -0.1739  0.0235  0.7315  -7.0312   0.0000   0.2804
  18.800   2.0068   0.19433   0.19108  -0.1762  0.0231  0.7324  -7.0533   0.0000   0.2810
  19.000   2.0009   0.19700   0.19381  -0.1785  0.0227  0.7333  -7.0754   0.0000   0.2816
  19.200   1.9966   0.19939   0.19624  -0.1806  0.0223  0.7342  -7.1071   0.0000   0.2820
  19.400   1.9885   0.20244   0.19935  -0.1835  0.0219  0.7351  -7.1137   0.0000   0.2829
  19.600   1.9840   0.20488   0.20182  -0.1857  0.0214  0.7361  -7.1424   0.0000   0.2834
  19.800   1.9759   0.20796   0.20496  -0.1887  0.0210  0.7369  -7.1461   0.0000   0.2845
  20.000   1.9721   0.21032   0.20735  -0.1910  0.0206  0.7378  -7.1769   0.0000   0.2849
  20.200   1.9695   0.21249   0.20956  -0.1930  0.0202  0.7388  -7.2143   0.0000   0.2853
  20.400   1.9630   0.21533   0.21246  -0.1960  0.0198  0.7396  -7.2253   0.0000   0.2862
  20.600   1.9601   0.21756   0.21472  -0.1982  0.0194  0.7404  -7.2595   0.0000   0.2866
  20.800   1.9551   0.22016   0.21736  -0.2009  0.0189  0.7412  -7.2782   0.0000   0.2874
  21.000   1.9496   0.22284   0.22008  -0.2038  0.0185  0.7420  -7.2924   0.0000   0.2882
  21.200   1.9466   0.22509   0.22235  -0.2062  0.0181  0.7428  -7.3234   0.0000   0.2887
  21.400   1.9423   0.22757   0.22489  -0.2089  0.0178  0.7436  -7.3434   0.0000   0.2894
  21.600   1.9392   0.22983   0.22718  -0.2113  0.0174  0.7444  -7.3721   0.0000   0.2900
  21.800   1.9374   0.23185   0.22923  -0.2136  0.0171  0.7451  -7.4096   0.0000   0.2903
  22.000   1.9332   0.23430   0.23172  -0.2163  0.0167  0.7458  -7.4282   0.0000   0.2911
  22.200   1.9290   0.23671   0.23416  -0.2191  0.0164  0.7464  -7.4458   0.0000   0.2918
  22.400   1.9260   0.23871   0.23620  -0.2214  0.0160  0.7474  -7.4747   0.0000   0.2922
  22.600   1.9212   0.24108   0.23860  -0.2241  0.0157  0.7482  -7.4887   0.0000   0.2930
  22.800   1.9176   0.24319   0.24076  -0.2266  0.0155  0.7490  -7.5155   0.0000   0.2936
  23.000   1.9161   0.24491   0.24251  -0.2286  0.0152  0.7498  -7.5584   0.0000   0.2938
  23.200   1.9142   0.24669   0.24432  -0.2306  0.0150  0.7505  -7.5981   0.0000   0.2941
  23.400   1.9085   0.24920   0.24688  -0.2337  0.0147  0.7512  -7.6042   0.0000   0.2950
  23.600   1.9061   0.25108   0.24879  -0.2360  0.0144  0.7519  -7.6376   0.0000   0.2954
  23.800   1.9036   0.25295   0.25068  -0.2383  0.0140  0.7526  -7.6705   0.0000   0.2958
  24.000   1.8977   0.25551   0.25329  -0.2415  0.0137  0.7532  -7.6704   0.0000   0.2969
  24.200   1.8952   0.25738   0.25519  -0.2439  0.0135  0.7540  -7.7014   0.0000   0.2974
  24.400   1.8942   0.25896   0.25680  -0.2459  0.0132  0.7548  -7.7451   0.0000   0.2975
  24.600   1.8922   0.26076   0.25863  -0.2482  0.0130  0.7556  -7.7781   0.0000   0.2979
  24.800   1.8878   0.26301   0.26092  -0.2512  0.0127  0.7565  -7.7886   0.0000   0.2987
  25.000   1.8862   0.26472   0.26266  -0.2534  0.0125  0.7574  -7.8247   0.0000   0.2991


