xflr5 v6.47

 Calculated polar for: NACA24018_theta30_Ku4.5_Kl0.5_d0.17_delta4.56

 1 1 Reynolds number fixed          Mach number fixed         

 xtrf =   1.000 (top)        1.000 (bottom)
 Mach =   0.000     Re =     1.000 e 6     Ncrit =   5.000

  alpha     CL        CD       CDp       Cm    Top Xtr Bot Xtr   Cpmin    Chinge    XCp    
 ------- -------- --------- --------- -------- ------- ------- -------- --------- ---------
 -15.000  -0.9296   0.03409   0.02910  -0.0888  0.9288  0.0310  -6.2951   0.0000   0.1306
 -14.600  -0.9262   0.03231   0.02726  -0.0850  0.9228  0.0315  -6.1511   0.0000   0.1354
 -14.400  -0.9135   0.03161   0.02652  -0.0847  0.9215  0.0319  -6.0398   0.0000   0.1348
 -14.200  -0.9016   0.03076   0.02564  -0.0840  0.9175  0.0322  -5.9315   0.0000   0.1346
 -14.000  -0.8871   0.03011   0.02496  -0.0838  0.9158  0.0326  -5.8147   0.0000   0.1336
 -13.800  -0.8686   0.02957   0.02439  -0.0841  0.9148  0.0330  -5.6846   0.0000   0.1315
 -13.600  -0.8480   0.02901   0.02383  -0.0848  0.9141  0.0335  -5.5485   0.0000   0.1284
 -13.400  -0.8249   0.02852   0.02333  -0.0859  0.9136  0.0341  -5.4042   0.0000   0.1244
 -13.200  -0.8119   0.02782   0.02263  -0.0851  0.9097  0.0346  -5.2951   0.0000   0.1239
 -13.000  -0.7901   0.02736   0.02216  -0.0858  0.9085  0.0352  -5.1596   0.0000   0.1203
 -12.800  -0.7662   0.02695   0.02173  -0.0867  0.9076  0.0357  -5.0225   0.0000   0.1157
 -12.600  -0.7409   0.02657   0.02134  -0.0879  0.9070  0.0363  -4.8824   0.0000   0.1103
 -12.400  -0.7141   0.02621   0.02096  -0.0892  0.9065  0.0369  -4.7394   0.0000   0.1039
 -12.000  -0.6679   0.02540   0.02016  -0.0907  0.9033  0.0382  -4.4786   0.0000   0.0930
 -11.800  -0.6440   0.02505   0.01981  -0.0915  0.9016  0.0390  -4.3480   0.0000   0.0867
 -11.600  -0.6176   0.02476   0.01951  -0.0927  0.9006  0.0399  -4.2112   0.0000   0.0786
 -11.400  -0.5898   0.02448   0.01922  -0.0940  0.8999  0.0406  -4.0721   0.0000   0.0690
 -11.200  -0.5604   0.02415   0.01891  -0.0957  0.8992  0.0416  -3.9301   0.0000   0.0573
 -11.000  -0.5309   0.02387   0.01864  -0.0974  0.8987  0.0426  -3.7923   0.0000   0.0443
 -10.800  -0.5010   0.02362   0.01839  -0.0990  0.8983  0.0436  -3.6586   0.0000   0.0295
 -10.600  -0.4710   0.02339   0.01816  -0.1007  0.8980  0.0445  -3.5261   0.0000   0.0128
 -10.400  -0.4539   0.02313   0.01791  -0.1002  0.8940  0.0454  -3.4288   0.0000   0.0057
 -10.200  -0.4250   0.02286   0.01765  -0.1017  0.8925  0.0466  -3.3021   0.0000  -0.0134
 -10.000  -0.3943   0.02257   0.01737  -0.1034  0.8913  0.0480  -3.1722   0.0000  -0.0374
  -9.800  -0.3613   0.02223   0.01703  -0.1055  0.8903  0.0494  -3.0387   0.0000  -0.0684
  -9.600  -0.3443   0.02206   0.01688  -0.1049  0.8845  0.0506  -2.9460   0.0000  -0.0814
  -9.400  -0.3152   0.02180   0.01663  -0.1063  0.8818  0.0521  -2.8266   0.0000  -0.1154
  -9.200  -0.3219   0.02243   0.01729  -0.1018  0.8534  0.0526  -2.7948   0.0000  -0.0930
  -9.000  -0.2918   0.02225   0.01711  -0.1033  0.8474  0.0542  -2.6789   0.0000  -0.1325
  -8.800  -0.2591   0.02198   0.01687  -0.1053  0.8432  0.0563  -2.5588   0.0000  -0.1869
  -8.600  -0.2252   0.02168   0.01656  -0.1074  0.8389  0.0583  -2.4380   0.0000  -0.2604
  -8.400  -0.1876   0.02125   0.01615  -0.1102  0.8332  0.0607  -2.3113   0.0000  -0.3756
  -8.200  -0.1440   0.02058   0.01545  -0.1139  0.8258  0.0636  -2.1741   0.0000  -0.5888
  -8.000  -0.0913   0.01960   0.01445  -0.1193  0.8149  0.0673  -2.0217   0.0000  -1.1275
  -7.800  -0.0356   0.01851   0.01327  -0.1252  0.7969  0.0711  -1.8736   0.0000  -3.4391
  -7.600   0.0082   0.01781   0.01244  -0.1292  0.7688  0.0750  -1.7518   0.0000  16.7773
  -7.400   0.0357   0.01769   0.01219  -0.1303  0.7358  0.0786  -1.6616   0.0000   4.0532
  -7.200   0.0580   0.01776   0.01214  -0.1304  0.7046  0.0820  -1.5853   0.0000   2.5891
  -7.000   0.0810   0.01786   0.01214  -0.1307  0.6757  0.0860  -1.5093   0.0000   1.9253
  -6.800   0.1043   0.01797   0.01215  -0.1310  0.6502  0.0901  -1.4350   0.0000   1.5523
  -6.600   0.1290   0.01807   0.01218  -0.1316  0.6281  0.0951  -1.3621   0.0000   1.3057
  -6.400   0.1548   0.01815   0.01220  -0.1324  0.6080  0.1009  -1.2883   0.0000   1.1331
  -6.000   0.2070   0.01833   0.01226  -0.1341  0.5668  0.1142  -1.1434   0.0000   0.9162
  -5.800   0.2340   0.01841   0.01229  -0.1351  0.5469  0.1225  -1.0713   0.0000   0.8427
  -5.400   0.2911   0.01859   0.01240  -0.1377  0.5102  0.1455  -0.9272   0.0000   0.7338
  -5.200   0.3214   0.01869   0.01249  -0.1393  0.4922  0.1624  -0.8574   0.0000   0.6925
  -5.000   0.3544   0.01882   0.01263  -0.1416  0.4752  0.1889  -0.8266   0.0000   0.6569
  -4.800   0.3923   0.01898   0.01287  -0.1448  0.4594  0.2325  -0.8622   0.0000   0.6252
  -4.600   0.4459   0.01930   0.01338  -0.1512  0.4403  0.3231  -0.9088   0.0000   0.5939
  -4.400   0.4906   0.01960   0.01378  -0.1558  0.4228  0.3828  -0.9499   0.0000   0.5712
  -4.200   0.5247   0.01983   0.01401  -0.1581  0.4086  0.4098  -0.9840   0.0000   0.5543
  -4.000   0.5570   0.02005   0.01422  -0.1600  0.3969  0.4314  -1.0171   0.0000   0.5397
  -3.800   0.5885   0.02027   0.01442  -0.1618  0.3850  0.4503  -1.0499   0.0000   0.5267
  -3.600   0.6209   0.02051   0.01466  -0.1638  0.3741  0.4705  -1.0835   0.0000   0.5149
  -3.400   0.6530   0.02076   0.01489  -0.1656  0.3652  0.4885  -1.1171   0.0000   0.5043
  -3.200   0.6840   0.02099   0.01513  -0.1673  0.3570  0.5039  -1.1503   0.0000   0.4947
  -3.000   0.7150   0.02124   0.01536  -0.1689  0.3489  0.5201  -1.1835   0.0000   0.4860
  -2.800   0.7457   0.02149   0.01561  -0.1705  0.3426  0.5363  -1.2194   0.0000   0.4779
  -2.600   0.7768   0.02176   0.01587  -0.1721  0.3353  0.5511  -1.2561   0.0000   0.4705
  -2.400   0.8035   0.02197   0.01605  -0.1729  0.3291  0.5588  -1.2895   0.0000   0.4637
  -2.200   0.8294   0.02217   0.01624  -0.1735  0.3229  0.5644  -1.3224   0.0000   0.4574
  -2.000   0.8540   0.02236   0.01639  -0.1739  0.3165  0.5694  -1.3545   0.0000   0.4514
  -1.800   0.8779   0.02254   0.01654  -0.1741  0.3116  0.5739  -1.3875   0.0000   0.4458
  -1.600   0.9027   0.02274   0.01672  -0.1745  0.3075  0.5784  -1.4215   0.0000   0.4405
  -1.400   0.9281   0.02295   0.01693  -0.1750  0.3031  0.5840  -1.4566   0.0000   0.4355
  -1.200   0.9525   0.02317   0.01712  -0.1754  0.2984  0.5896  -1.4920   0.0000   0.4307
  -1.000   0.9763   0.02337   0.01730  -0.1756  0.2945  0.5944  -1.5270   0.0000   0.4261
  -0.800   1.0005   0.02358   0.01750  -0.1759  0.2908  0.5988  -1.5626   0.0000   0.4217
  -0.600   1.0248   0.02380   0.01772  -0.1762  0.2869  0.6035  -1.5984   0.0000   0.4175
  -0.400   1.0486   0.02403   0.01793  -0.1764  0.2828  0.6086  -1.6341   0.0000   0.4135
  -0.200   1.0720   0.02426   0.01814  -0.1765  0.2789  0.6136  -1.6695   0.0000   0.4097
   0.000   1.0955   0.02448   0.01836  -0.1767  0.2759  0.6180  -1.7053   0.0000   0.4060
   0.200   1.1191   0.02471   0.01860  -0.1768  0.2725  0.6227  -1.7412   0.0000   0.4025
   0.400   1.1420   0.02495   0.01883  -0.1769  0.2691  0.6272  -1.7786   0.0000   0.3991
   0.600   1.1646   0.02519   0.01905  -0.1768  0.2656  0.6316  -1.8169   0.0000   0.3958
   0.800   1.1872   0.02544   0.01928  -0.1768  0.2624  0.6357  -1.8554   0.0000   0.3926
   1.000   1.2098   0.02567   0.01953  -0.1768  0.2596  0.6401  -1.8942   0.0000   0.3895
   1.200   1.2321   0.02592   0.01978  -0.1767  0.2562  0.6447  -1.9330   0.0000   0.3865
   1.400   1.2542   0.02618   0.02004  -0.1766  0.2527  0.6493  -1.9716   0.0000   0.3836
   1.600   1.2761   0.02646   0.02030  -0.1765  0.2490  0.6536  -2.0109   0.0000   0.3808
   1.800   1.2982   0.02673   0.02056  -0.1764  0.2464  0.6574  -2.0531   0.0000   0.3781
   2.000   1.3192   0.02698   0.02083  -0.1761  0.2441  0.6615  -2.0943   0.0000   0.3754
   2.200   1.3401   0.02724   0.02110  -0.1758  0.2411  0.6655  -2.1356   0.0000   0.3728
   2.400   1.3610   0.02752   0.02138  -0.1754  0.2378  0.6693  -2.1771   0.0000   0.3702
   2.600   1.3820   0.02784   0.02167  -0.1752  0.2342  0.6732  -2.2190   0.0000   0.3678
   2.800   1.4038   0.02814   0.02198  -0.1750  0.2315  0.6767  -2.2619   0.0000   0.3654
   3.000   1.4232   0.02840   0.02226  -0.1744  0.2289  0.6802  -2.3025   0.0000   0.3630
   3.200   1.4425   0.02868   0.02254  -0.1738  0.2260  0.6838  -2.3445   0.0000   0.3607
   3.400   1.4619   0.02898   0.02285  -0.1732  0.2232  0.6875  -2.3886   0.0000   0.3584
   3.600   1.4817   0.02932   0.02318  -0.1727  0.2201  0.6912  -2.4333   0.0000   0.3562
   3.800   1.5022   0.02966   0.02352  -0.1724  0.2174  0.6946  -2.4792   0.0000   0.3540
   4.000   1.5228   0.03000   0.02387  -0.1720  0.2145  0.6974  -2.5255   0.0000   0.3519
   4.200   1.5395   0.03030   0.02419  -0.1710  0.2115  0.7003  -2.5695   0.0000   0.3497
   4.400   1.5560   0.03064   0.02454  -0.1699  0.2086  0.7034  -2.6144   0.0000   0.3475
   4.600   1.5730   0.03103   0.02492  -0.1690  0.2057  0.7067  -2.6601   0.0000   0.3454
   4.800   1.5915   0.03139   0.02531  -0.1683  0.2033  0.7099  -2.7089   0.0000   0.3434
   5.000   1.6104   0.03179   0.02571  -0.1677  0.2004  0.7128  -2.7594   0.0000   0.3415
   5.200   1.6296   0.03223   0.02615  -0.1671  0.1973  0.7154  -2.8114   0.0000   0.3396
   5.400   1.6469   0.03267   0.02659  -0.1662  0.1942  0.7179  -2.8618   0.0000   0.3377
   5.600   1.6610   0.03303   0.02697  -0.1648  0.1917  0.7205  -2.9079   0.0000   0.3356
   5.800   1.6763   0.03337   0.02734  -0.1636  0.1895  0.7231  -2.9559   0.0000   0.3337
   6.000   1.6919   0.03376   0.02775  -0.1624  0.1868  0.7258  -3.0048   0.0000   0.3317
   6.200   1.7079   0.03421   0.02821  -0.1614  0.1838  0.7285  -3.0577   0.0000   0.3299
   6.400   1.7237   0.03476   0.02875  -0.1603  0.1808  0.7312  -3.1128   0.0000   0.3281
   6.600   1.7411   0.03530   0.02931  -0.1595  0.1782  0.7337  -3.1706   0.0000   0.3263
   6.800   1.7593   0.03587   0.02989  -0.1589  0.1750  0.7358  -3.2326   0.0000   0.3247
   7.000   1.7718   0.03636   0.03039  -0.1573  0.1716  0.7378  -3.2869   0.0000   0.3228
   7.200   1.7823   0.03687   0.03090  -0.1554  0.1684  0.7398  -3.3391   0.0000   0.3208
   7.400   1.7944   0.03733   0.03139  -0.1537  0.1661  0.7419  -3.3956   0.0000   0.3190
   7.600   1.8069   0.03784   0.03193  -0.1522  0.1633  0.7440  -3.4563   0.0000   0.3172
   7.800   1.8188   0.03847   0.03257  -0.1506  0.1601  0.7460  -3.5166   0.0000   0.3154
   8.000   1.8307   0.03920   0.03330  -0.1490  0.1569  0.7480  -3.5779   0.0000   0.3136
   8.200   1.8454   0.03986   0.03398  -0.1479  0.1542  0.7501  -3.6470   0.0000   0.3120
   8.400   1.8602   0.04061   0.03474  -0.1469  0.1507  0.7523  -3.7234   0.0000   0.3104
   8.600   1.8742   0.04150   0.03562  -0.1459  0.1469  0.7542  -3.7986   0.0000   0.3089
   8.800   1.8855   0.04226   0.03642  -0.1443  0.1442  0.7558  -3.8683   0.0000   0.3072
   9.000   1.8930   0.04293   0.03711  -0.1422  0.1416  0.7573  -3.9297   0.0000   0.3054
   9.200   1.9002   0.04366   0.03787  -0.1400  0.1388  0.7586  -3.9910   0.0000   0.3036
   9.400   1.9062   0.04452   0.03875  -0.1378  0.1359  0.7601  -4.0497   0.0000   0.3018
   9.600   1.9138   0.04532   0.03958  -0.1358  0.1331  0.7617  -4.1123   0.0000   0.3000
   9.800   1.9212   0.04625   0.04053  -0.1339  0.1296  0.7633  -4.1747   0.0000   0.2984
  10.000   1.9278   0.04739   0.04168  -0.1320  0.1262  0.7650  -4.2363   0.0000   0.2967
  10.200   1.9367   0.04844   0.04276  -0.1304  0.1231  0.7666  -4.3103   0.0000   0.2952
  10.400   1.9450   0.04965   0.04399  -0.1289  0.1199  0.7682  -4.3830   0.0000   0.2937
  10.600   1.9527   0.05102   0.04538  -0.1275  0.1171  0.7699  -4.4550   0.0000   0.2922
  10.800   1.9632   0.05231   0.04671  -0.1264  0.1146  0.7716  -4.5366   0.0000   0.2909
  11.000   1.9726   0.05382   0.04823  -0.1253  0.1116  0.7731  -4.6162   0.0000   0.2896
  11.200   1.9738   0.05524   0.04969  -0.1232  0.1092  0.7741  -4.6740   0.0000   0.2880
  11.400   1.9755   0.05654   0.05104  -0.1211  0.1070  0.7751  -4.7327   0.0000   0.2864
  11.600   1.9764   0.05799   0.05253  -0.1190  0.1044  0.7760  -4.7893   0.0000   0.2849
  11.800   1.9753   0.05970   0.05427  -0.1169  0.1016  0.7768  -4.8406   0.0000   0.2834
  12.000   1.9755   0.06135   0.05597  -0.1151  0.0991  0.7777  -4.8954   0.0000   0.2820
  12.200   1.9748   0.06317   0.05783  -0.1133  0.0962  0.7786  -4.9492   0.0000   0.2807
  12.400   1.9724   0.06528   0.05998  -0.1117  0.0936  0.7796  -4.9985   0.0000   0.2794
  12.600   1.9724   0.06722   0.06197  -0.1103  0.0913  0.7807  -5.0547   0.0000   0.2782
  12.800   1.9715   0.06935   0.06415  -0.1091  0.0889  0.7818  -5.1078   0.0000   0.2771
  13.000   1.9685   0.07180   0.06664  -0.1080  0.0867  0.7829  -5.1547   0.0000   0.2761
  13.200   1.9675   0.07416   0.06906  -0.1071  0.0848  0.7840  -5.2092   0.0000   0.2751
  13.400   1.9659   0.07670   0.07166  -0.1065  0.0825  0.7850  -5.2628   0.0000   0.2743
  13.600   1.9621   0.07961   0.07461  -0.1060  0.0803  0.7860  -5.3099   0.0000   0.2736
  13.800   1.9599   0.08245   0.07751  -0.1058  0.0783  0.7870  -5.3618   0.0000   0.2730
  14.000   1.9578   0.08544   0.08056  -0.1059  0.0762  0.7881  -5.4135   0.0000   0.2725
  14.200   1.9536   0.08883   0.08401  -0.1062  0.0741  0.7891  -5.4572   0.0000   0.2722
  14.400   1.9510   0.09217   0.08741  -0.1068  0.0723  0.7902  -5.5056   0.0000   0.2720
  14.600   1.9451   0.09527   0.09058  -0.1070  0.0706  0.7909  -5.5422   0.0000   0.2716
  14.800   1.9355   0.09847   0.09386  -0.1070  0.0690  0.7914  -5.5647   0.0000   0.2713
  15.000   1.9243   0.10195   0.09740  -0.1073  0.0676  0.7919  -5.5803   0.0000   0.2712
  15.200   1.9154   0.10514   0.10067  -0.1077  0.0663  0.7924  -5.6032   0.0000   0.2710
  15.400   1.9059   0.10847   0.10408  -0.1083  0.0648  0.7928  -5.6225   0.0000   0.2710
  15.600   1.8951   0.11206   0.10774  -0.1092  0.0633  0.7933  -5.6354   0.0000   0.2711
  16.000   1.8738   0.11935   0.11518  -0.1115  0.0608  0.7941  -5.6578   0.0000   0.2718
  16.200   1.8641   0.12289   0.11879  -0.1129  0.0594  0.7946  -5.6709   0.0000   0.2721
  16.400   1.8533   0.12664   0.12260  -0.1145  0.0580  0.7950  -5.6777   0.0000   0.2727
  16.600   1.8413   0.13056   0.12660  -0.1163  0.0569  0.7955  -5.6780   0.0000   0.2734
  16.800   1.8317   0.13414   0.13025  -0.1180  0.0558  0.7961  -5.6869   0.0000   0.2740
  17.000   1.8217   0.13779   0.13397  -0.1199  0.0546  0.7967  -5.6927   0.0000   0.2748
  17.200   1.8116   0.14151   0.13775  -0.1220  0.0534  0.7973  -5.6960   0.0000   0.2756
  17.400   1.8013   0.14528   0.14159  -0.1243  0.0522  0.7980  -5.6971   0.0000   0.2765
  17.600   1.7926   0.14888   0.14525  -0.1265  0.0512  0.7987  -5.7036   0.0000   0.2774
  17.800   1.7849   0.15239   0.14882  -0.1288  0.0500  0.7994  -5.7130   0.0000   0.2783
  18.000   1.7781   0.15582   0.15230  -0.1312  0.0488  0.8001  -5.7265   0.0000   0.2792
  18.200   1.7690   0.15974   0.15628  -0.1341  0.0477  0.8009  -5.7270   0.0000   0.2805
  18.400   1.7644   0.16305   0.15965  -0.1366  0.0467  0.8017  -5.7478   0.0000   0.2814
  18.600   1.7596   0.16651   0.16316  -0.1394  0.0456  0.8026  -5.7663   0.0000   0.2825
  18.800   1.7560   0.16996   0.16666  -0.1423  0.0444  0.8035  -5.7880   0.0000   0.2836
  19.000   1.7509   0.17384   0.17058  -0.1457  0.0432  0.8046  -5.8000   0.0000   0.2851
  19.200   1.7513   0.17716   0.17395  -0.1489  0.0421  0.8058  -5.8371   0.0000   0.2861
  19.400   1.7498   0.18072   0.17754  -0.1523  0.0409  0.8069  -5.8642   0.0000   0.2874
  19.600   1.7440   0.18344   0.18030  -0.1543  0.0400  0.8073  -5.8777   0.0000   0.2881
  19.800   1.7357   0.18669   0.18359  -0.1569  0.0392  0.8078  -5.8750   0.0000   0.2893
  20.000   1.7326   0.18900   0.18595  -0.1586  0.0383  0.8082  -5.9049   0.0000   0.2897
  20.200   1.7278   0.19166   0.18866  -0.1607  0.0375  0.8086  -5.9243   0.0000   0.2905
  20.400   1.7230   0.19434   0.19138  -0.1629  0.0367  0.8090  -5.9426   0.0000   0.2913
  20.600   1.7189   0.19694   0.19401  -0.1651  0.0358  0.8094  -5.9637   0.0000   0.2921
  20.800   1.7137   0.19978   0.19689  -0.1676  0.0351  0.8098  -5.9762   0.0000   0.2931
  21.000   1.7116   0.20201   0.19917  -0.1695  0.0344  0.8102  -6.0085   0.0000   0.2935
  21.200   1.7091   0.20435   0.20154  -0.1715  0.0336  0.8107  -6.0371   0.0000   0.2941
  21.400   1.7044   0.20713   0.20436  -0.1741  0.0328  0.8111  -6.0500   0.0000   0.2952
  21.600   1.7010   0.20968   0.20693  -0.1764  0.0321  0.8115  -6.0703   0.0000   0.2960
  21.800   1.6991   0.21197   0.20926  -0.1786  0.0314  0.8120  -6.0995   0.0000   0.2966
  22.000   1.6966   0.21442   0.21175  -0.1809  0.0307  0.8125  -6.1235   0.0000   0.2974
  22.200   1.6950   0.21673   0.21409  -0.1832  0.0300  0.8130  -6.1530   0.0000   0.2981
  22.400   1.6924   0.21927   0.21666  -0.1858  0.0293  0.8136  -6.1741   0.0000   0.2990
  22.600   1.6892   0.22195   0.21937  -0.1885  0.0286  0.8142  -6.1894   0.0000   0.3000
  22.800   1.6896   0.22398   0.22144  -0.1906  0.0280  0.8150  -6.2296   0.0000   0.3004
  23.000   1.6895   0.22619   0.22368  -0.1929  0.0274  0.8158  -6.2650   0.0000   0.3010
  23.200   1.6881   0.22880   0.22633  -0.1958  0.0268  0.8167  -6.2876   0.0000   0.3020
  23.400   1.6881   0.23135   0.22890  -0.1987  0.0261  0.8178  -6.3179   0.0000   0.3029
  23.600   1.6895   0.23393   0.23151  -0.2018  0.0255  0.8189  -6.3541   0.0000   0.3038
  23.800   1.6921   0.23662   0.23423  -0.2052  0.0249  0.8202  -6.3946   0.0000   0.3048
  24.000   1.6964   0.23938   0.23702  -0.2089  0.0242  0.8215  -6.4436   0.0000   0.3057
  24.200   1.6967   0.24166   0.23932  -0.2116  0.0236  0.8221  -6.4757   0.0000   0.3064
  24.400   1.6931   0.24412   0.24181  -0.2142  0.0231  0.8224  -6.4834   0.0000   0.3074
  24.600   1.6918   0.24609   0.24381  -0.2163  0.0226  0.8227  -6.5093   0.0000   0.3080
  24.800   1.6914   0.24783   0.24558  -0.2182  0.0222  0.8230  -6.5435   0.0000   0.3083
  25.000   1.6897   0.24982   0.24760  -0.2204  0.0217  0.8233  -6.5654   0.0000   0.3089


