xflr5 v6.47

 Calculated polar for: NACA24018_theta30_Ku4.5_Kl0.5_d0.10_delta2.45

 1 1 Reynolds number fixed          Mach number fixed         

 xtrf =   1.000 (top)        1.000 (bottom)
 Mach =   0.000     Re =     0.800 e 6     Ncrit =   5.000

  alpha     CL        CD       CDp       Cm    Top Xtr Bot Xtr   Cpmin    Chinge    XCp    
 ------- -------- --------- --------- -------- ------- ------- -------- --------- ---------
 -15.000  -1.0038   0.03347   0.02813  -0.0815  0.9814  0.0297  -6.5784   0.0000   0.1449
 -14.800  -1.0043   0.03219   0.02682  -0.0791  0.9796  0.0299  -6.5141   0.0000   0.1479
 -14.600  -0.9935   0.03145   0.02606  -0.0787  0.9784  0.0302  -6.4091   0.0000   0.1477
 -13.600  -0.9282   0.02807   0.02253  -0.0772  0.9678  0.0320  -5.8515   0.0000   0.1452
 -13.400  -0.9089   0.02762   0.02204  -0.0778  0.9667  0.0324  -5.7205   0.0000   0.1431
 -13.200  -0.8972   0.02678   0.02117  -0.0770  0.9625  0.0328  -5.6160   0.0000   0.1432
 -13.000  -0.8808   0.02620   0.02058  -0.0771  0.9611  0.0333  -5.4958   0.0000   0.1417
 -12.800  -0.8690   0.02551   0.01988  -0.0762  0.9581  0.0338  -5.3910   0.0000   0.1419
 -12.600  -0.8546   0.02492   0.01928  -0.0756  0.9558  0.0343  -5.2786   0.0000   0.1413
 -12.400  -0.8370   0.02444   0.01877  -0.0756  0.9546  0.0348  -5.1562   0.0000   0.1397
 -12.200  -0.8279   0.02378   0.01809  -0.0740  0.9509  0.0353  -5.0624   0.0000   0.1410
 -12.000  -0.8136   0.02326   0.01755  -0.0733  0.9488  0.0357  -4.9534   0.0000   0.1406
 -11.800  -0.7966   0.02281   0.01707  -0.0730  0.9476  0.0362  -4.8408   0.0000   0.1392
 -11.600  -0.7932   0.02215   0.01637  -0.0702  0.9427  0.0365  -4.7696   0.0000   0.1428
 -11.400  -0.7770   0.02162   0.01583  -0.0697  0.9410  0.0371  -4.6608   0.0000   0.1418
 -11.200  -0.7570   0.02113   0.01535  -0.0698  0.9400  0.0378  -4.5408   0.0000   0.1393
 -10.600  -0.7337   0.01946   0.01365  -0.0632  0.9193  0.0395  -4.2917   0.0000   0.1465
 -10.200  -0.6977   0.01868   0.01284  -0.0622  0.9102  0.0409  -4.0708   0.0000   0.1437
 -10.000  -0.6762   0.01826   0.01242  -0.0624  0.9074  0.0416  -3.9524   0.0000   0.1408
  -9.800  -0.6545   0.01785   0.01201  -0.0626  0.9043  0.0425  -3.8343   0.0000   0.1375
  -9.600  -0.6345   0.01750   0.01166  -0.0624  0.8991  0.0434  -3.7217   0.0000   0.1348
  -9.400  -0.6105   0.01712   0.01128  -0.0629  0.8961  0.0444  -3.6034   0.0000   0.1301
  -9.200  -0.5866   0.01677   0.01092  -0.0634  0.8923  0.0454  -3.4883   0.0000   0.1251
  -9.000  -0.5625   0.01643   0.01056  -0.0639  0.8872  0.0463  -3.3741   0.0000   0.1195
  -8.800  -0.5346   0.01598   0.01013  -0.0651  0.8833  0.0476  -3.2515   0.0000   0.1111
  -8.600  -0.5058   0.01557   0.00971  -0.0665  0.8769  0.0492  -3.1280   0.0000   0.1013
  -8.400  -0.4716   0.01508   0.00921  -0.0688  0.8700  0.0508  -2.9937   0.0000   0.0865
  -8.200  -0.4339   0.01454   0.00864  -0.0718  0.8602  0.0526  -2.8571   0.0000   0.0663
  -8.000  -0.3942   0.01400   0.00808  -0.0752  0.8490  0.0548  -2.7205   0.0000   0.0400
  -7.800  -0.3550   0.01355   0.00758  -0.0786  0.8365  0.0570  -2.5876   0.0000   0.0084
  -7.600  -0.3191   0.01315   0.00713  -0.0813  0.8209  0.0592  -2.4641   0.0000  -0.0264
  -7.400  -0.2884   0.01287   0.00678  -0.0831  0.8011  0.0616  -2.3531   0.0000  -0.0608
  -7.200  -0.2617   0.01270   0.00652  -0.0840  0.7796  0.0638  -2.2522   0.0000  -0.0948
  -7.000  -0.2380   0.01255   0.00629  -0.0844  0.7585  0.0662  -2.1587   0.0000  -0.1296
  -6.800  -0.2158   0.01244   0.00612  -0.0845  0.7375  0.0687  -2.0693   0.0000  -0.1679
  -6.600  -0.1943   0.01238   0.00597  -0.0844  0.7165  0.0709  -1.9826   0.0000  -0.2122
  -6.400  -0.1728   0.01230   0.00583  -0.0843  0.6972  0.0739  -1.8970   0.0000  -0.2680
  -6.200  -0.1511   0.01224   0.00571  -0.0843  0.6795  0.0772  -1.8120   0.0000  -0.3405
  -6.000  -0.1294   0.01219   0.00560  -0.0842  0.6614  0.0803  -1.7329   0.0000  -0.4374
  -5.800  -0.1072   0.01214   0.00550  -0.0843  0.6429  0.0842  -1.6571   0.0000  -0.5777
  -5.600  -0.0851   0.01212   0.00541  -0.0843  0.6247  0.0878  -1.5823   0.0000  -0.7904
  -5.400  -0.0622   0.01207   0.00533  -0.0845  0.6082  0.0927  -1.5073   0.0000  -1.1726
  -5.200  -0.0394   0.01204   0.00525  -0.0847  0.5924  0.0978  -1.4354   0.0000  -1.9978
  -5.000  -0.0159   0.01200   0.00518  -0.0850  0.5758  0.1042  -1.3652   0.0000  -5.3042
  -4.800   0.0074   0.01198   0.00512  -0.0852  0.5591  0.1106  -1.2961   0.0000  12.2949
  -4.600   0.0311   0.01196   0.00507  -0.0856  0.5431  0.1190  -1.2272   0.0000   3.1012
  -4.400   0.0555   0.01192   0.00502  -0.0861  0.5283  0.1295  -1.1585   0.0000   1.8543
  -4.200   0.0802   0.01189   0.00497  -0.0867  0.5133  0.1429  -1.0903   0.0000   1.3644
  -4.000   0.1053   0.01186   0.00494  -0.0874  0.4978  0.1585  -1.0261   0.0000   1.1033
  -3.600   0.1601   0.01169   0.00488  -0.0898  0.4690  0.2165  -0.8944   0.0000   0.8235
  -3.400   0.1960   0.01144   0.00486  -0.0930  0.4553  0.2963  -0.8195   0.0000   0.7335
  -3.200   0.2321   0.01129   0.00491  -0.0961  0.4415  0.3695  -0.8213   0.0000   0.6709
  -3.000   0.2627   0.01129   0.00495  -0.0980  0.4283  0.4068  -0.8513   0.0000   0.6278
  -2.800   0.2926   0.01132   0.00501  -0.0996  0.4158  0.4356  -0.8810   0.0000   0.5939
  -2.600   0.3233   0.01135   0.00508  -0.1014  0.4042  0.4643  -0.9114   0.0000   0.5660
  -2.400   0.3538   0.01140   0.00516  -0.1031  0.3940  0.4905  -0.9420   0.0000   0.5429
  -2.200   0.3830   0.01148   0.00524  -0.1045  0.3838  0.5107  -0.9718   0.0000   0.5236
  -2.000   0.4117   0.01157   0.00533  -0.1058  0.3736  0.5286  -1.0023   0.0000   0.5071
  -1.800   0.4402   0.01166   0.00542  -0.1070  0.3653  0.5449  -1.0335   0.0000   0.4926
  -1.600   0.4692   0.01176   0.00552  -0.1083  0.3574  0.5625  -1.0658   0.0000   0.4799
  -1.400   0.4985   0.01186   0.00564  -0.1097  0.3506  0.5805  -1.0993   0.0000   0.4687
  -1.200   0.5275   0.01197   0.00576  -0.1111  0.3431  0.5976  -1.1329   0.0000   0.4586
  -1.000   0.5549   0.01209   0.00587  -0.1121  0.3367  0.6095  -1.1655   0.0000   0.4496
  -0.400   0.6301   0.01246   0.00618  -0.1135  0.3201  0.6304  -1.2589   0.0000   0.4268
  -0.200   0.6549   0.01258   0.00629  -0.1140  0.3146  0.6368  -1.2910   0.0000   0.4203
   0.000   0.6796   0.01273   0.00641  -0.1144  0.3095  0.6439  -1.3239   0.0000   0.4143
   0.200   0.7041   0.01285   0.00653  -0.1148  0.3058  0.6503  -1.3567   0.0000   0.4087
   0.400   0.7287   0.01298   0.00666  -0.1152  0.3019  0.6565  -1.3899   0.0000   0.4034
   0.600   0.7529   0.01312   0.00679  -0.1155  0.2977  0.6632  -1.4229   0.0000   0.3985
   0.800   0.7767   0.01328   0.00693  -0.1158  0.2936  0.6694  -1.4558   0.0000   0.3939
   1.000   0.8010   0.01341   0.00707  -0.1161  0.2901  0.6760  -1.4894   0.0000   0.3895
   1.200   0.8248   0.01356   0.00721  -0.1164  0.2862  0.6820  -1.5241   0.0000   0.3853
   1.400   0.8480   0.01371   0.00737  -0.1165  0.2825  0.6880  -1.5599   0.0000   0.3813
   1.600   0.8712   0.01389   0.00753  -0.1167  0.2790  0.6944  -1.5962   0.0000   0.3776
   1.800   0.8946   0.01403   0.00768  -0.1168  0.2762  0.7001  -1.6329   0.0000   0.3740
   2.000   0.9174   0.01418   0.00785  -0.1169  0.2728  0.7061  -1.6693   0.0000   0.3705
   2.200   0.9403   0.01436   0.00801  -0.1170  0.2691  0.7121  -1.7059   0.0000   0.3673
   2.400   0.9622   0.01454   0.00819  -0.1168  0.2655  0.7174  -1.7417   0.0000   0.3640
   2.600   0.9841   0.01471   0.00837  -0.1167  0.2626  0.7231  -1.7778   0.0000   0.3610
   2.800   1.0069   0.01488   0.00854  -0.1168  0.2595  0.7288  -1.8149   0.0000   0.3581
   3.000   1.0281   0.01505   0.00873  -0.1165  0.2562  0.7337  -1.8515   0.0000   0.3552
   3.200   1.0488   0.01524   0.00892  -0.1162  0.2532  0.7391  -1.8886   0.0000   0.3523
   3.400   1.0702   0.01546   0.00913  -0.1160  0.2503  0.7443  -1.9284   0.0000   0.3497
   3.600   1.0914   0.01564   0.00932  -0.1158  0.2480  0.7489  -1.9683   0.0000   0.3471
   3.800   1.1109   0.01581   0.00952  -0.1152  0.2453  0.7536  -2.0067   0.0000   0.3444
   4.000   1.1314   0.01601   0.00973  -0.1148  0.2421  0.7585  -2.0462   0.0000   0.3420
   4.200   1.1528   0.01626   0.00996  -0.1147  0.2388  0.7629  -2.0871   0.0000   0.3397
   4.400   1.1696   0.01648   0.01019  -0.1136  0.2359  0.7669  -2.1231   0.0000   0.3371
   4.600   1.1881   0.01667   0.01041  -0.1128  0.2336  0.7712  -2.1610   0.0000   0.3346
   4.800   1.2081   0.01689   0.01064  -0.1124  0.2307  0.7755  -2.2017   0.0000   0.3324
   5.200   1.2443   0.01737   0.01113  -0.1109  0.2252  0.7831  -2.2854   0.0000   0.3279
   5.400   1.2603   0.01762   0.01139  -0.1097  0.2226  0.7869  -2.3250   0.0000   0.3256
   5.600   1.2792   0.01786   0.01165  -0.1091  0.2203  0.7908  -2.3682   0.0000   0.3235
   5.800   1.3003   0.01812   0.01192  -0.1089  0.2175  0.7944  -2.4143   0.0000   0.3217
   6.000   1.3165   0.01837   0.01218  -0.1078  0.2144  0.7973  -2.4548   0.0000   0.3195
   6.200   1.3296   0.01863   0.01245  -0.1061  0.2115  0.8003  -2.4925   0.0000   0.3172
   6.400   1.3439   0.01893   0.01277  -0.1047  0.2087  0.8036  -2.5327   0.0000   0.3150
   6.600   1.3618   0.01921   0.01307  -0.1039  0.2067  0.8071  -2.5779   0.0000   0.3131
   6.800   1.3828   0.01953   0.01340  -0.1038  0.2043  0.8104  -2.6294   0.0000   0.3115
   7.000   1.3973   0.01981   0.01371  -0.1025  0.2017  0.8129  -2.6747   0.0000   0.3095
   7.200   1.4076   0.02009   0.01401  -0.1003  0.1991  0.8154  -2.7144   0.0000   0.3071
   7.400   1.4195   0.02043   0.01435  -0.0985  0.1964  0.8180  -2.7562   0.0000   0.3049
   7.600   1.4346   0.02076   0.01470  -0.0973  0.1939  0.8207  -2.8028   0.0000   0.3031
   7.800   1.4523   0.02111   0.01508  -0.0967  0.1914  0.8235  -2.8533   0.0000   0.3015
   8.000   1.4719   0.02153   0.01550  -0.0964  0.1882  0.8261  -2.9066   0.0000   0.3001
   8.200   1.4847   0.02193   0.01591  -0.0949  0.1853  0.8282  -2.9548   0.0000   0.2982
   8.400   1.4911   0.02230   0.01630  -0.0922  0.1829  0.8301  -2.9934   0.0000   0.2958
   8.600   1.5009   0.02264   0.01668  -0.0902  0.1809  0.8321  -3.0372   0.0000   0.2937
   8.800   1.5128   0.02303   0.01710  -0.0885  0.1788  0.8341  -3.0862   0.0000   0.2918
   9.000   1.5259   0.02346   0.01756  -0.0872  0.1761  0.8362  -3.1415   0.0000   0.2900
   9.200   1.5400   0.02398   0.01808  -0.0861  0.1729  0.8384  -3.1996   0.0000   0.2885
   9.400   1.5557   0.02458   0.01868  -0.0854  0.1696  0.8406  -3.2606   0.0000   0.2871
   9.600   1.5754   0.02512   0.01924  -0.0854  0.1669  0.8426  -3.3304   0.0000   0.2861
   9.800   1.5794   0.02555   0.01971  -0.0825  0.1646  0.8440  -3.3734   0.0000   0.2837
  10.000   1.5847   0.02608   0.02026  -0.0800  0.1619  0.8454  -3.4190   0.0000   0.2816
  10.200   1.5902   0.02670   0.02090  -0.0776  0.1591  0.8468  -3.4648   0.0000   0.2796
  10.400   1.5975   0.02730   0.02153  -0.0755  0.1567  0.8483  -3.5156   0.0000   0.2777
  10.600   1.6066   0.02789   0.02216  -0.0738  0.1542  0.8499  -3.5730   0.0000   0.2760
  10.800   1.6163   0.02858   0.02287  -0.0723  0.1513  0.8516  -3.6339   0.0000   0.2744
  11.000   1.6265   0.02940   0.02371  -0.0711  0.1483  0.8533  -3.6973   0.0000   0.2730
  11.200   1.6390   0.03028   0.02460  -0.0704  0.1456  0.8550  -3.7669   0.0000   0.2719
  11.400   1.6551   0.03112   0.02547  -0.0703  0.1428  0.8566  -3.8451   0.0000   0.2710
  11.600   1.6651   0.03201   0.02639  -0.0692  0.1398  0.8578  -3.9104   0.0000   0.2696
  11.800   1.6660   0.03291   0.02731  -0.0666  0.1372  0.8587  -3.9555   0.0000   0.2677
  12.000   1.6664   0.03391   0.02834  -0.0642  0.1348  0.8597  -4.0012   0.0000   0.2658
  12.200   1.6697   0.03477   0.02926  -0.0621  0.1326  0.8607  -4.0555   0.0000   0.2641
  12.400   1.6726   0.03577   0.03030  -0.0602  0.1299  0.8617  -4.1093   0.0000   0.2625
  12.600   1.6745   0.03696   0.03151  -0.0583  0.1270  0.8627  -4.1624   0.0000   0.2609
  12.800   1.6759   0.03830   0.03287  -0.0567  0.1243  0.8638  -4.2140   0.0000   0.2595
  13.000   1.6808   0.03947   0.03409  -0.0554  0.1221  0.8649  -4.2749   0.0000   0.2582
  13.200   1.6858   0.04078   0.03544  -0.0544  0.1194  0.8660  -4.3360   0.0000   0.2570
  13.400   1.6898   0.04232   0.03702  -0.0536  0.1166  0.8672  -4.3943   0.0000   0.2560
  13.600   1.6932   0.04412   0.03884  -0.0530  0.1138  0.8685  -4.4527   0.0000   0.2551
  13.800   1.7013   0.04577   0.04053  -0.0530  0.1113  0.8697  -4.5241   0.0000   0.2545
  14.000   1.7094   0.04767   0.04248  -0.0534  0.1084  0.8709  -4.5955   0.0000   0.2541
  14.200   1.7114   0.04979   0.04463  -0.0532  0.1057  0.8718  -4.6500   0.0000   0.2534
  14.400   1.7060   0.05182   0.04671  -0.0518  0.1036  0.8723  -4.6838   0.0000   0.2522
  14.600   1.7028   0.05364   0.04859  -0.0506  0.1017  0.8728  -4.7240   0.0000   0.2511
  14.800   1.6981   0.05568   0.05069  -0.0495  0.0995  0.8734  -4.7592   0.0000   0.2500
  15.000   1.6918   0.05801   0.05308  -0.0486  0.0973  0.8739  -4.7891   0.0000   0.2491
  15.200   1.6840   0.06065   0.05577  -0.0480  0.0952  0.8744  -4.8135   0.0000   0.2484
  15.400   1.6783   0.06318   0.05836  -0.0476  0.0934  0.8749  -4.8435   0.0000   0.2477
  15.600   1.6731   0.06578   0.06102  -0.0475  0.0915  0.8754  -4.8754   0.0000   0.2472
  15.800   1.6658   0.06867   0.06399  -0.0475  0.0895  0.8759  -4.9006   0.0000   0.2468
  16.000   1.6562   0.07193   0.06730  -0.0477  0.0876  0.8764  -4.9171   0.0000   0.2465
  16.200   1.6449   0.07548   0.07092  -0.0481  0.0858  0.8769  -4.9270   0.0000   0.2464
  16.400   1.6377   0.07861   0.07413  -0.0486  0.0843  0.8775  -4.9494   0.0000   0.2463
  16.600   1.6294   0.08196   0.07755  -0.0493  0.0825  0.8780  -4.9674   0.0000   0.2463
  16.800   1.6192   0.08565   0.08131  -0.0503  0.0807  0.8784  -4.9776   0.0000   0.2465
  17.000   1.6069   0.08969   0.08543  -0.0515  0.0790  0.8788  -4.9787   0.0000   0.2469
  17.400   1.5845   0.09772   0.09360  -0.0545  0.0760  0.8796  -4.9845   0.0000   0.2480
  17.600   1.5752   0.10156   0.09751  -0.0560  0.0744  0.8800  -4.9931   0.0000   0.2486
  17.800   1.5644   0.10565   0.10167  -0.0579  0.0728  0.8804  -4.9974   0.0000   0.2494
  18.000   1.5521   0.11000   0.10609  -0.0599  0.0712  0.8808  -4.9939   0.0000   0.2505
  18.200   1.5393   0.11448   0.11063  -0.0622  0.0697  0.8812  -4.9866   0.0000   0.2517
  18.400   1.5332   0.11811   0.11433  -0.0642  0.0683  0.8818  -5.0053   0.0000   0.2525
  18.600   1.5258   0.12203   0.11831  -0.0666  0.0667  0.8823  -5.0168   0.0000   0.2536
  18.800   1.5178   0.12613   0.12246  -0.0691  0.0650  0.8829  -5.0239   0.0000   0.2549
  19.000   1.5092   0.13040   0.12678  -0.0720  0.0634  0.8834  -5.0265   0.0000   0.2565
  19.200   1.5041   0.13432   0.13076  -0.0749  0.0619  0.8839  -5.0421   0.0000   0.2579
  19.400   1.5018   0.13804   0.13454  -0.0778  0.0604  0.8845  -5.0677   0.0000   0.2593
  19.600   1.4990   0.14165   0.13818  -0.0806  0.0588  0.8850  -5.0917   0.0000   0.2606
  19.800   1.4897   0.14520   0.14178  -0.0826  0.0574  0.8852  -5.0900   0.0000   0.2617
  20.200   1.4759   0.15152   0.14819  -0.0864  0.0550  0.8858  -5.1069   0.0000   0.2635
  20.400   1.4717   0.15423   0.15094  -0.0880  0.0537  0.8861  -5.1274   0.0000   0.2641
  20.600   1.4652   0.15732   0.15406  -0.0899  0.0524  0.8864  -5.1349   0.0000   0.2651
  20.800   1.4586   0.16037   0.15715  -0.0918  0.0511  0.8868  -5.1416   0.0000   0.2661
  21.000   1.4519   0.16348   0.16029  -0.0939  0.0500  0.8872  -5.1460   0.0000   0.2671
  21.200   1.4489   0.16600   0.16286  -0.0955  0.0489  0.8876  -5.1686   0.0000   0.2678
  21.400   1.4466   0.16847   0.16536  -0.0972  0.0477  0.8881  -5.1943   0.0000   0.2684
  21.600   1.4421   0.17145   0.16838  -0.0994  0.0466  0.8885  -5.2053   0.0000   0.2695
  21.800   1.4382   0.17440   0.17135  -0.1017  0.0454  0.8889  -5.2184   0.0000   0.2707
  22.000   1.4360   0.17712   0.17410  -0.1039  0.0443  0.8893  -5.2394   0.0000   0.2716
  22.200   1.4342   0.17982   0.17684  -0.1061  0.0433  0.8897  -5.2616   0.0000   0.2726
  22.400   1.4333   0.18240   0.17945  -0.1083  0.0421  0.8901  -5.2876   0.0000   0.2735
  22.600   1.4316   0.18515   0.18222  -0.1107  0.0410  0.8906  -5.3083   0.0000   0.2746
  22.800   1.4274   0.18836   0.18546  -0.1135  0.0399  0.8910  -5.3125   0.0000   0.2761
  23.000   1.4282   0.19070   0.18784  -0.1156  0.0390  0.8916  -5.3458   0.0000   0.2769
  23.200   1.4292   0.19305   0.19022  -0.1178  0.0380  0.8922  -5.3795   0.0000   0.2777
  23.400   1.4279   0.19590   0.19310  -0.1205  0.0370  0.8927  -5.3970   0.0000   0.2789
  23.600   1.4274   0.19868   0.19590  -0.1232  0.0361  0.8933  -5.4181   0.0000   0.2801
  23.800   1.4274   0.20143   0.19867  -0.1260  0.0352  0.8938  -5.4407   0.0000   0.2814
  24.000   1.4294   0.20392   0.20120  -0.1286  0.0345  0.8943  -5.4743   0.0000   0.2824
  24.200   1.4312   0.20650   0.20382  -0.1313  0.0336  0.8948  -5.5067   0.0000   0.2835
  24.400   1.4334   0.20907   0.20641  -0.1341  0.0327  0.8953  -5.5420   0.0000   0.2845
  24.600   1.4348   0.21183   0.20919  -0.1372  0.0318  0.8958  -5.5706   0.0000   0.2858
  24.800   1.4347   0.21497   0.21235  -0.1407  0.0310  0.8962  -5.5858   0.0000   0.2875
  25.000   1.4393   0.21733   0.21476  -0.1435  0.0303  0.8967  -5.6365   0.0000   0.2884


