xflr5 v6.47

 Calculated polar for: NACA24018_theta30_Ku4.5_Kl0.5_d0.35_delta13.38

 1 1 Reynolds number fixed          Mach number fixed         

 xtrf =   1.000 (top)        1.000 (bottom)
 Mach =   0.000     Re =     0.600 e 6     Ncrit =   5.000

  alpha     CL        CD       CDp       Cm    Top Xtr Bot Xtr   Cpmin    Chinge    XCp    
 ------- -------- --------- --------- -------- ------- ------- -------- --------- ---------
  -9.000   0.6859   0.08892   0.08538  -0.1837  0.6933  0.2115  -0.9178   0.0000   0.5165
  -8.800   0.7413   0.09097   0.08752  -0.1888  0.6835  0.2513  -0.9703   0.0000   0.5026
  -8.600   0.8332   0.09399   0.09070  -0.1990  0.6741  0.3263  -1.0542   0.0000   0.4861
  -8.400   0.9070   0.09396   0.09067  -0.2056  0.6618  0.3722  -1.1266   0.0000   0.4735
  -8.200   0.9777   0.09207   0.08866  -0.2113  0.6466  0.3986  -1.1980   0.0000   0.4627
  -8.000   1.0496   0.08940   0.08562  -0.2173  0.6052  0.4173  -1.2727   0.0000   0.4534
  -7.800   1.0667   0.08969   0.08563  -0.2165  0.5588  0.4244  -1.2984   0.0000   0.4490
  -7.600   1.0838   0.09099   0.08673  -0.2160  0.5230  0.4323  -1.3249   0.0000   0.4449
  -7.200   1.1152   0.09284   0.08831  -0.2145  0.4754  0.4433  -1.3757   0.0000   0.4371
  -7.000   1.1305   0.09351   0.08888  -0.2137  0.4561  0.4489  -1.4010   0.0000   0.4334
  -6.800   1.1569   0.09502   0.09025  -0.2145  0.4356  0.4569  -1.4365   0.0000   0.4294
  -6.600   1.1723   0.09554   0.09070  -0.2137  0.4206  0.4614  -1.4621   0.0000   0.4259
  -6.200   1.1973   0.09597   0.09102  -0.2110  0.3962  0.4692  -1.5090   0.0000   0.4191
  -6.000   1.2179   0.09682   0.09178  -0.2109  0.3841  0.4739  -1.5411   0.0000   0.4157
  -5.800   1.2479   0.09833   0.09319  -0.2122  0.3716  0.4791  -1.5829   0.0000   0.4123
  -5.600   1.2624   0.09864   0.09345  -0.2112  0.3633  0.4817  -1.6108   0.0000   0.4092
  -5.400   1.2733   0.09858   0.09338  -0.2096  0.3568  0.4836  -1.6350   0.0000   0.4062
  -5.200   1.2852   0.09863   0.09341  -0.2081  0.3499  0.4855  -1.6602   0.0000   0.4032
  -5.000   1.2983   0.09882   0.09355  -0.2069  0.3434  0.4873  -1.6868   0.0000   0.4003
  -4.800   1.3134   0.09907   0.09379  -0.2059  0.3374  0.4896  -1.7156   0.0000   0.3974
  -4.600   1.3308   0.09956   0.09425  -0.2053  0.3307  0.4925  -1.7469   0.0000   0.3946
  -4.400   1.3515   0.10036   0.09498  -0.2052  0.3240  0.4960  -1.7819   0.0000   0.3918
  -4.200   1.3804   0.10168   0.09627  -0.2063  0.3184  0.5001  -1.8271   0.0000   0.3891
  -4.000   1.3994   0.10228   0.09685  -0.2060  0.3128  0.5025  -1.8636   0.0000   0.3865
  -3.800   1.4091   0.10219   0.09673  -0.2042  0.3081  0.5039  -1.8897   0.0000   0.3839
  -3.600   1.4193   0.10214   0.09667  -0.2025  0.3039  0.5053  -1.9164   0.0000   0.3814
  -3.400   1.4309   0.10212   0.09666  -0.2010  0.3006  0.5067  -1.9448   0.0000   0.3789
  -3.200   1.4434   0.10219   0.09674  -0.1997  0.2970  0.5081  -1.9743   0.0000   0.3764
  -3.000   1.4571   0.10239   0.09693  -0.1985  0.2929  0.5097  -2.0052   0.0000   0.3740
  -2.800   1.4717   0.10272   0.09723  -0.1975  0.2886  0.5116  -2.0374   0.0000   0.3717
  -2.600   1.4878   0.10316   0.09765  -0.1968  0.2846  0.5138  -2.0715   0.0000   0.3694
  -2.400   1.5073   0.10378   0.09827  -0.1965  0.2809  0.5167  -2.1097   0.0000   0.3672
  -2.200   1.5450   0.10589   0.10034  -0.1989  0.2753  0.5231  -2.1715   0.0000   0.3652
  -2.000   1.5544   0.10581   0.10025  -0.1972  0.2718  0.5242  -2.2006   0.0000   0.3630
  -1.800   1.5638   0.10577   0.10020  -0.1954  0.2685  0.5252  -2.2299   0.0000   0.3608
  -1.600   1.5742   0.10574   0.10018  -0.1938  0.2659  0.5261  -2.2604   0.0000   0.3586
  -1.400   1.5852   0.10574   0.10020  -0.1923  0.2635  0.5270  -2.2918   0.0000   0.3565
  -1.200   1.5965   0.10578   0.10026  -0.1908  0.2607  0.5280  -2.3237   0.0000   0.3544
  -1.000   1.6082   0.10589   0.10038  -0.1894  0.2575  0.5292  -2.3562   0.0000   0.3523
  -0.800   1.6201   0.10608   0.10056  -0.1881  0.2541  0.5304  -2.3892   0.0000   0.3503
  -0.600   1.6323   0.10636   0.10082  -0.1868  0.2504  0.5318  -2.4238   0.0000   0.3483
  -0.400   1.6456   0.10662   0.10109  -0.1857  0.2475  0.5334  -2.4604   0.0000   0.3464
  -0.200   1.6601   0.10696   0.10145  -0.1847  0.2445  0.5356  -2.4986   0.0000   0.3445
   0.200   1.7118   0.10961   0.10406  -0.1862  0.2368  0.5452  -2.6156   0.0000   0.3412
   0.400   1.7205   0.10973   0.10418  -0.1844  0.2340  0.5459  -2.6492   0.0000   0.3393
   0.600   1.7295   0.10982   0.10429  -0.1828  0.2316  0.5465  -2.6834   0.0000   0.3375
   0.800   1.7391   0.10990   0.10440  -0.1811  0.2291  0.5472  -2.7185   0.0000   0.3356
   1.000   1.7488   0.11003   0.10455  -0.1795  0.2263  0.5479  -2.7539   0.0000   0.3338
   1.200   1.7585   0.11022   0.10475  -0.1780  0.2233  0.5487  -2.7896   0.0000   0.3320
   1.400   1.7681   0.11046   0.10499  -0.1765  0.2201  0.5495  -2.8252   0.0000   0.3302
   1.600   1.7771   0.11073   0.10525  -0.1749  0.2170  0.5504  -2.8647   0.0000   0.3284
   1.800   1.7875   0.11089   0.10545  -0.1734  0.2146  0.5514  -2.9062   0.0000   0.3267
   2.000   1.7979   0.11110   0.10568  -0.1720  0.2120  0.5525  -2.9479   0.0000   0.3250
   2.200   1.8084   0.11137   0.10598  -0.1706  0.2093  0.5537  -2.9901   0.0000   0.3233
   2.400   1.8192   0.11175   0.10636  -0.1693  0.2065  0.5552  -3.0332   0.0000   0.3216
   2.600   1.8306   0.11228   0.10689  -0.1682  0.2034  0.5569  -3.0807   0.0000   0.3200
   2.800   1.8450   0.11301   0.10763  -0.1674  0.2004  0.5595  -3.1339   0.0000   0.3185
   3.000   1.8779   0.11504   0.10966  -0.1693  0.1959  0.5669  -3.2214   0.0000   0.3174
   3.200   1.8852   0.11534   0.10999  -0.1676  0.1930  0.5674  -3.2628   0.0000   0.3158
   3.400   1.8920   0.11569   0.11034  -0.1659  0.1902  0.5679  -3.3080   0.0000   0.3141
   3.600   1.8985   0.11607   0.11072  -0.1642  0.1874  0.5685  -3.3542   0.0000   0.3125
   3.800   1.9065   0.11631   0.11100  -0.1626  0.1852  0.5691  -3.4036   0.0000   0.3109
   4.000   1.9145   0.11657   0.11131  -0.1611  0.1825  0.5698  -3.4530   0.0000   0.3094
   4.200   1.9220   0.11691   0.11166  -0.1595  0.1796  0.5705  -3.5019   0.0000   0.3078
   4.400   1.9291   0.11734   0.11210  -0.1579  0.1766  0.5711  -3.5521   0.0000   0.3063
   4.600   1.9352   0.11794   0.11271  -0.1564  0.1737  0.5719  -3.6041   0.0000   0.3047
   4.800   1.9432   0.11843   0.11323  -0.1550  0.1712  0.5727  -3.6603   0.0000   0.3032
   5.000   1.9511   0.11896   0.11380  -0.1536  0.1681  0.5736  -3.7166   0.0000   0.3018
   5.200   1.9585   0.11957   0.11443  -0.1522  0.1648  0.5746  -3.7759   0.0000   0.3003
   5.400   1.9654   0.12029   0.11515  -0.1509  0.1617  0.5758  -3.8345   0.0000   0.2989
   5.600   1.9739   0.12095   0.11583  -0.1497  0.1590  0.5772  -3.8980   0.0000   0.2975
   5.800   1.9830   0.12172   0.11664  -0.1487  0.1560  0.5790  -3.9651   0.0000   0.2961
   6.000   1.9953   0.12297   0.11790  -0.1483  0.1522  0.5829  -4.0414   0.0000   0.2949
   6.200   2.0127   0.12481   0.11973  -0.1487  0.1481  0.5885  -4.1324   0.0000   0.2939
   6.400   2.0181   0.12532   0.12027  -0.1472  0.1455  0.5890  -4.1971   0.0000   0.2925
   6.600   2.0228   0.12593   0.12092  -0.1457  0.1425  0.5894  -4.2602   0.0000   0.2911
   6.800   2.0257   0.12677   0.12179  -0.1443  0.1396  0.5899  -4.3190   0.0000   0.2898
   7.000   2.0279   0.12770   0.12273  -0.1429  0.1368  0.5903  -4.3759   0.0000   0.2885
   7.200   2.0329   0.12835   0.12342  -0.1416  0.1341  0.5908  -4.4406   0.0000   0.2871
   7.400   2.0362   0.12920   0.12431  -0.1403  0.1310  0.5914  -4.5008   0.0000   0.2858
   7.600   2.0381   0.13020   0.12533  -0.1390  0.1280  0.5920  -4.5591   0.0000   0.2846
   7.800   2.0399   0.13124   0.12640  -0.1378  0.1253  0.5926  -4.6195   0.0000   0.2834
   8.000   2.0431   0.13216   0.12737  -0.1367  0.1226  0.5933  -4.6844   0.0000   0.2822
   8.200   2.0455   0.13319   0.12843  -0.1357  0.1198  0.5940  -4.7470   0.0000   0.2810
   8.400   2.0461   0.13442   0.12969  -0.1347  0.1171  0.5948  -4.8042   0.0000   0.2799
   8.600   2.0476   0.13555   0.13086  -0.1338  0.1145  0.5958  -4.8642   0.0000   0.2788
   8.800   2.0496   0.13668   0.13204  -0.1329  0.1116  0.5970  -4.9258   0.0000   0.2777
   9.000   2.0505   0.13798   0.13336  -0.1323  0.1085  0.5983  -4.9840   0.0000   0.2767
   9.200   2.0504   0.13950   0.13491  -0.1318  0.1057  0.5999  -5.0393   0.0000   0.2758
   9.400   2.0540   0.14090   0.13635  -0.1315  0.1028  0.6020  -5.1064   0.0000   0.2749
   9.800   2.0667   0.14511   0.14062  -0.1327  0.0961  0.6095  -5.2606   0.0000   0.2736
  10.000   2.0654   0.14642   0.14198  -0.1323  0.0937  0.6098  -5.3112   0.0000   0.2728
  10.200   2.0629   0.14787   0.14347  -0.1319  0.0911  0.6102  -5.3571   0.0000   0.2720
  10.400   2.0590   0.14950   0.14513  -0.1318  0.0889  0.6105  -5.3977   0.0000   0.2713
  10.600   2.0570   0.15091   0.14660  -0.1316  0.0867  0.6109  -5.4446   0.0000   0.2706
  10.800   2.0541   0.15242   0.14816  -0.1316  0.0843  0.6113  -5.4883   0.0000   0.2699
  11.000   2.0492   0.15419   0.14998  -0.1319  0.0821  0.6117  -5.5255   0.0000   0.2695
  11.200   2.0459   0.15577   0.15161  -0.1321  0.0802  0.6122  -5.5705   0.0000   0.2689
  11.400   2.0422   0.15741   0.15331  -0.1324  0.0782  0.6127  -5.6134   0.0000   0.2684
  11.600   2.0374   0.15917   0.15513  -0.1330  0.0761  0.6132  -5.6512   0.0000   0.2681
  12.000   2.0272   0.16279   0.15885  -0.1344  0.0723  0.6144  -5.7227   0.0000   0.2675
  12.200   2.0226   0.16456   0.16068  -0.1352  0.0701  0.6151  -5.7593   0.0000   0.2672
  12.400   2.0155   0.16666   0.16283  -0.1364  0.0682  0.6157  -5.7849   0.0000   0.2672
  12.600   2.0099   0.16862   0.16484  -0.1376  0.0664  0.6165  -5.8156   0.0000   0.2671
  12.800   2.0053   0.17048   0.16677  -0.1387  0.0644  0.6174  -5.8502   0.0000   0.2670
  13.000   1.9984   0.17269   0.16902  -0.1404  0.0626  0.6182  -5.8748   0.0000   0.2671
  13.200   1.9917   0.17492   0.17131  -0.1421  0.0610  0.6191  -5.9013   0.0000   0.2673
  13.400   1.9880   0.17685   0.17330  -0.1436  0.0594  0.6202  -5.9409   0.0000   0.2673
  13.600   1.9829   0.17901   0.17552  -0.1454  0.0577  0.6214  -5.9734   0.0000   0.2675
  13.800   1.9775   0.18133   0.17788  -0.1475  0.0562  0.6228  -6.0025   0.0000   0.2678
  14.000   1.9737   0.18372   0.18033  -0.1498  0.0547  0.6249  -6.0382   0.0000   0.2682
  14.200   1.9784   0.18651   0.18317  -0.1530  0.0527  0.6299  -6.1109   0.0000   0.2686
  14.400   1.9708   0.18870   0.18541  -0.1550  0.0514  0.6301  -6.1280   0.0000   0.2690
  14.600   1.9635   0.19084   0.18759  -0.1570  0.0501  0.6304  -6.1461   0.0000   0.2694
  14.800   1.9581   0.19270   0.18951  -0.1587  0.0489  0.6307  -6.1736   0.0000   0.2695
  15.000   1.9530   0.19450   0.19137  -0.1604  0.0476  0.6310  -6.2023   0.0000   0.2697
  15.200   1.9458   0.19662   0.19353  -0.1625  0.0464  0.6313  -6.2181   0.0000   0.2701
  15.400   1.9387   0.19871   0.19567  -0.1647  0.0452  0.6317  -6.2340   0.0000   0.2705
  15.600   1.9340   0.20046   0.19748  -0.1664  0.0441  0.6321  -6.2622   0.0000   0.2707
  15.800   1.9288   0.20228   0.19934  -0.1683  0.0428  0.6325  -6.2872   0.0000   0.2709
  16.000   1.9232   0.20416   0.20126  -0.1703  0.0416  0.6330  -6.3096   0.0000   0.2713
  16.200   1.9160   0.20632   0.20346  -0.1727  0.0405  0.6334  -6.3204   0.0000   0.2718
  16.400   1.9125   0.20791   0.20510  -0.1744  0.0394  0.6339  -6.3534   0.0000   0.2719
  16.600   1.9079   0.20969   0.20692  -0.1764  0.0382  0.6345  -6.3789   0.0000   0.2722
  16.800   1.9021   0.21169   0.20896  -0.1787  0.0372  0.6350  -6.3952   0.0000   0.2727
  17.000   1.8977   0.21348   0.21078  -0.1808  0.0362  0.6356  -6.4202   0.0000   0.2730
  17.200   1.8943   0.21514   0.21249  -0.1827  0.0352  0.6362  -6.4505   0.0000   0.2732
  17.400   1.8904   0.21689   0.21429  -0.1848  0.0343  0.6369  -6.4766   0.0000   0.2735
  17.600   1.8869   0.21859   0.21602  -0.1869  0.0334  0.6377  -6.5047   0.0000   0.2737


