xflr5 v6.47

 Calculated polar for: NACA24018_theta30_Ku4.5_Kl0.5_d0.17_delta4.56

 1 1 Reynolds number fixed          Mach number fixed         

 xtrf =   1.000 (top)        1.000 (bottom)
 Mach =   0.000     Re =     1.600 e 6     Ncrit =   5.000

  alpha     CL        CD       CDp       Cm    Top Xtr Bot Xtr   Cpmin    Chinge    XCp    
 ------- -------- --------- --------- -------- ------- ------- -------- --------- ---------
 -15.000  -0.9602   0.02900   0.02427  -0.0899  0.9145  0.0284  -6.4638   0.0000   0.1332
 -14.800  -0.9436   0.02845   0.02371  -0.0900  0.9141  0.0287  -6.3342   0.0000   0.1317
 -14.600  -0.9244   0.02798   0.02322  -0.0904  0.9138  0.0290  -6.1963   0.0000   0.1295
 -14.400  -0.9155   0.02728   0.02249  -0.0890  0.9099  0.0293  -6.0957   0.0000   0.1304
 -14.200  -0.8959   0.02679   0.02199  -0.0894  0.9088  0.0295  -5.9577   0.0000   0.1281
 -14.000  -0.8740   0.02629   0.02148  -0.0901  0.9080  0.0300  -5.8131   0.0000   0.1248
 -13.800  -0.8496   0.02582   0.02101  -0.0912  0.9073  0.0305  -5.6611   0.0000   0.1207
 -13.600  -0.8232   0.02539   0.02058  -0.0926  0.9068  0.0310  -5.5038   0.0000   0.1156
 -13.400  -0.7955   0.02499   0.02018  -0.0941  0.9064  0.0315  -5.3431   0.0000   0.1097
 -13.200  -0.7663   0.02463   0.01981  -0.0959  0.9061  0.0322  -5.1811   0.0000   0.1029
 -13.000  -0.7515   0.02424   0.01942  -0.0951  0.9033  0.0326  -5.0712   0.0000   0.1016
 -12.800  -0.7288   0.02392   0.01909  -0.0957  0.9018  0.0330  -4.9369   0.0000   0.0969
 -12.600  -0.7020   0.02356   0.01874  -0.0970  0.9009  0.0337  -4.7921   0.0000   0.0899
 -12.400  -0.6742   0.02323   0.01842  -0.0985  0.9003  0.0344  -4.6453   0.0000   0.0819
 -12.200  -0.6456   0.02294   0.01813  -0.1000  0.8997  0.0351  -4.4979   0.0000   0.0729
 -12.000  -0.6160   0.02265   0.01784  -0.1016  0.8993  0.0358  -4.3491   0.0000   0.0626
 -11.800  -0.5855   0.02236   0.01755  -0.1034  0.8989  0.0364  -4.1994   0.0000   0.0506
 -11.600  -0.5545   0.02207   0.01727  -0.1053  0.8985  0.0372  -4.0508   0.0000   0.0369
 -11.400  -0.5234   0.02179   0.01700  -0.1072  0.8983  0.0382  -3.9033   0.0000   0.0215
 -11.200  -0.4927   0.02154   0.01676  -0.1090  0.8981  0.0392  -3.7640   0.0000   0.0044
 -11.000  -0.4666   0.02134   0.01656  -0.1100  0.8970  0.0401  -3.6398   0.0000  -0.0105
  -9.800  -0.3565   0.02144   0.01675  -0.1077  0.8618  0.0449  -3.0400   0.0000  -0.0788
  -9.600  -0.3262   0.02128   0.01660  -0.1093  0.8508  0.0463  -2.9140   0.0000  -0.1132
  -9.400  -0.2899   0.02090   0.01623  -0.1119  0.8458  0.0480  -2.7797   0.0000  -0.1662
  -9.200  -0.2497   0.02039   0.01571  -0.1150  0.8413  0.0496  -2.6410   0.0000  -0.2443
  -9.000  -0.1998   0.01952   0.01484  -0.1199  0.8334  0.0519  -2.4834   0.0000  -0.3903
  -8.800  -0.1302   0.01795   0.01317  -0.1283  0.8159  0.0550  -2.2883   0.0000  -0.7932
  -8.600  -0.0852   0.01711   0.01214  -0.1325  0.7724  0.0577  -2.1495   0.0000  -1.3889
  -8.400  -0.0661   0.01722   0.01210  -0.1321  0.7356  0.0593  -2.0657   0.0000  -1.8517
  -8.200  -0.0453   0.01734   0.01211  -0.1320  0.7073  0.0615  -1.9794   0.0000  -2.8131
  -8.000  -0.0231   0.01744   0.01212  -0.1321  0.6815  0.0635  -1.8957   0.0000  -5.7423
  -7.800   0.0005   0.01752   0.01212  -0.1325  0.6560  0.0658  -1.8103   0.0000  252.4417
  -7.600   0.0245   0.01760   0.01211  -0.1329  0.6314  0.0682  -1.7256   0.0000   5.9137
  -7.400   0.0495   0.01766   0.01210  -0.1336  0.6091  0.0707  -1.6404   0.0000   3.0592
  -7.200   0.0756   0.01771   0.01210  -0.1344  0.5904  0.0738  -1.5583   0.0000   2.0983
  -7.000   0.1022   0.01776   0.01210  -0.1353  0.5728  0.0772  -1.4766   0.0000   1.6240
  -6.800   0.1287   0.01781   0.01209  -0.1362  0.5544  0.0812  -1.3996   0.0000   1.3462
  -6.600   0.1559   0.01786   0.01208  -0.1372  0.5353  0.0855  -1.3230   0.0000   1.1598
  -6.400   0.1831   0.01790   0.01207  -0.1382  0.5168  0.0902  -1.2476   0.0000   1.0287
  -6.200   0.2106   0.01795   0.01207  -0.1393  0.5004  0.0957  -1.1729   0.0000   0.9308
  -6.000   0.2388   0.01800   0.01208  -0.1405  0.4833  0.1023  -1.0984   0.0000   0.8546
  -5.800   0.2666   0.01807   0.01210  -0.1416  0.4665  0.1091  -1.0257   0.0000   0.7948
  -5.600   0.2944   0.01815   0.01216  -0.1427  0.4521  0.1164  -0.9541   0.0000   0.7463
  -5.400   0.3228   0.01823   0.01222  -0.1440  0.4394  0.1259  -0.8851   0.0000   0.7057
  -5.200   0.3515   0.01833   0.01229  -0.1453  0.4249  0.1371  -0.8195   0.0000   0.6715
  -5.000   0.3807   0.01843   0.01239  -0.1467  0.4113  0.1500  -0.8450   0.0000   0.6421
  -4.600   0.4463   0.01871   0.01271  -0.1509  0.3862  0.2008  -0.9100   0.0000   0.5929
  -4.400   0.4855   0.01892   0.01301  -0.1543  0.3747  0.2459  -0.9472   0.0000   0.5717
  -4.200   0.5400   0.01929   0.01358  -0.1608  0.3619  0.3370  -0.9955   0.0000   0.5507
  -4.000   0.5767   0.01952   0.01386  -0.1637  0.3520  0.3737  -1.0319   0.0000   0.5360
  -3.800   0.6094   0.01973   0.01409  -0.1657  0.3451  0.3981  -1.0656   0.0000   0.5235
  -3.600   0.6418   0.01994   0.01433  -0.1676  0.3381  0.4200  -1.0994   0.0000   0.5123
  -3.400   0.6744   0.02016   0.01456  -0.1696  0.3309  0.4418  -1.1335   0.0000   0.5021
  -3.200   0.7067   0.02039   0.01482  -0.1715  0.3259  0.4624  -1.1678   0.0000   0.4928
  -3.000   0.7361   0.02060   0.01501  -0.1728  0.3194  0.4780  -1.2003   0.0000   0.4845
  -2.600   0.7987   0.02107   0.01550  -0.1762  0.3069  0.5141  -1.2740   0.0000   0.4695
  -2.400   0.8306   0.02133   0.01576  -0.1780  0.3014  0.5307  -1.3117   0.0000   0.4628
  -2.000   0.8847   0.02173   0.01615  -0.1797  0.2936  0.5465  -1.3806   0.0000   0.4509
  -1.800   0.9091   0.02190   0.01630  -0.1800  0.2899  0.5514  -1.4143   0.0000   0.4455
  -1.600   0.9324   0.02206   0.01643  -0.1801  0.2855  0.5551  -1.4472   0.0000   0.4404
  -1.400   0.9584   0.02226   0.01661  -0.1807  0.2808  0.5602  -1.4840   0.0000   0.4355
  -1.200   0.9838   0.02246   0.01681  -0.1812  0.2778  0.5653  -1.5204   0.0000   0.4308
  -1.000   1.0081   0.02265   0.01699  -0.1815  0.2747  0.5704  -1.5562   0.0000   0.4264
  -0.800   1.0314   0.02282   0.01715  -0.1816  0.2710  0.5749  -1.5912   0.0000   0.4221
  -0.600   1.0570   0.02305   0.01736  -0.1822  0.2667  0.5803  -1.6285   0.0000   0.4181
  -0.400   1.0818   0.02327   0.01756  -0.1826  0.2631  0.5856  -1.6653   0.0000   0.4142
  -0.200   1.1054   0.02346   0.01776  -0.1827  0.2610  0.5903  -1.7013   0.0000   0.4104
   0.000   1.1282   0.02366   0.01795  -0.1827  0.2584  0.5943  -1.7366   0.0000   0.4068
   0.200   1.1524   0.02388   0.01816  -0.1830  0.2551  0.5990  -1.7735   0.0000   0.4034
   0.400   1.1771   0.02413   0.01840  -0.1834  0.2511  0.6045  -1.8140   0.0000   0.4001
   0.600   1.2005   0.02436   0.01861  -0.1835  0.2473  0.6095  -1.8534   0.0000   0.3968
   0.800   1.2231   0.02457   0.01882  -0.1835  0.2450  0.6136  -1.8923   0.0000   0.3937
   1.000   1.2453   0.02478   0.01903  -0.1834  0.2422  0.6171  -1.9310   0.0000   0.3907
   1.200   1.2694   0.02504   0.01929  -0.1836  0.2391  0.6216  -1.9718   0.0000   0.3878
   1.400   1.2926   0.02530   0.01954  -0.1837  0.2357  0.6266  -2.0119   0.0000   0.3850
   1.600   1.3150   0.02554   0.01977  -0.1837  0.2324  0.6313  -2.0540   0.0000   0.3822
   1.800   1.3367   0.02577   0.02000  -0.1835  0.2301  0.6352  -2.0962   0.0000   0.3795
   2.000   1.3594   0.02603   0.02027  -0.1835  0.2270  0.6395  -2.1396   0.0000   0.3769
   2.200   1.3823   0.02632   0.02055  -0.1835  0.2236  0.6443  -2.1834   0.0000   0.3744
   2.400   1.4040   0.02660   0.02082  -0.1833  0.2200  0.6488  -2.2263   0.0000   0.3720
   2.600   1.4254   0.02686   0.02108  -0.1831  0.2177  0.6527  -2.2689   0.0000   0.3695
   2.800   1.4463   0.02711   0.02133  -0.1827  0.2157  0.6558  -2.3113   0.0000   0.3672
   3.000   1.4677   0.02739   0.02161  -0.1825  0.2130  0.6593  -2.3549   0.0000   0.3649
   3.200   1.4891   0.02770   0.02192  -0.1823  0.2094  0.6636  -2.4016   0.0000   0.3626
   3.400   1.5098   0.02802   0.02223  -0.1819  0.2055  0.6678  -2.4476   0.0000   0.3604
   3.600   1.5306   0.02831   0.02252  -0.1816  0.2034  0.6717  -2.4940   0.0000   0.3582
   3.800   1.5509   0.02860   0.02281  -0.1812  0.2012  0.6750  -2.5401   0.0000   0.3561
   4.000   1.5709   0.02890   0.02311  -0.1807  0.1982  0.6780  -2.5880   0.0000   0.3540
   4.200   1.5908   0.02924   0.02345  -0.1802  0.1946  0.6818  -2.6374   0.0000   0.3520
   4.400   1.6103   0.02958   0.02379  -0.1796  0.1915  0.6854  -2.6867   0.0000   0.3499
   4.600   1.6300   0.02989   0.02411  -0.1791  0.1893  0.6887  -2.7376   0.0000   0.3479
   4.800   1.6493   0.03022   0.02445  -0.1785  0.1867  0.6919  -2.7889   0.0000   0.3460
   5.000   1.6681   0.03058   0.02480  -0.1779  0.1836  0.6949  -2.8410   0.0000   0.3440
   5.200   1.6863   0.03098   0.02518  -0.1771  0.1802  0.6975  -2.8931   0.0000   0.3421
   5.400   1.7045   0.03134   0.02556  -0.1763  0.1781  0.7006  -2.9454   0.0000   0.3402
   5.600   1.7221   0.03172   0.02596  -0.1755  0.1756  0.7035  -2.9973   0.0000   0.3383
   5.800   1.7392   0.03215   0.02639  -0.1745  0.1722  0.7066  -3.0486   0.0000   0.3364
   6.000   1.7556   0.03262   0.02685  -0.1735  0.1684  0.7096  -3.1037   0.0000   0.3346
   6.200   1.7731   0.03305   0.02728  -0.1726  0.1655  0.7125  -3.1618   0.0000   0.3328
   6.400   1.7903   0.03350   0.02774  -0.1717  0.1623  0.7149  -3.2198   0.0000   0.3310
   6.600   1.8068   0.03400   0.02822  -0.1708  0.1590  0.7170  -3.2808   0.0000   0.3292
   6.800   1.8220   0.03446   0.02869  -0.1695  0.1560  0.7198  -3.3404   0.0000   0.3274
   7.000   1.8377   0.03489   0.02914  -0.1684  0.1534  0.7225  -3.4028   0.0000   0.3256
   7.200   1.8525   0.03540   0.02965  -0.1671  0.1498  0.7250  -3.4675   0.0000   0.3239
   7.400   1.8658   0.03602   0.03026  -0.1657  0.1460  0.7273  -3.5306   0.0000   0.3221
   7.600   1.8806   0.03657   0.03083  -0.1644  0.1432  0.7297  -3.5977   0.0000   0.3204
   7.800   1.8949   0.03719   0.03145  -0.1632  0.1398  0.7321  -3.6658   0.0000   0.3187
   8.000   1.9087   0.03787   0.03212  -0.1618  0.1364  0.7341  -3.7403   0.0000   0.3170
   8.200   1.9238   0.03847   0.03273  -0.1607  0.1338  0.7358  -3.8181   0.0000   0.3153
   8.400   1.9364   0.03910   0.03337  -0.1592  0.1302  0.7376  -3.8911   0.0000   0.3136
   8.600   1.9461   0.03988   0.03414  -0.1573  0.1262  0.7395  -3.9582   0.0000   0.3119
   8.800   1.9569   0.04058   0.03486  -0.1555  0.1229  0.7416  -4.0281   0.0000   0.3101
   9.000   1.9668   0.04138   0.03566  -0.1537  0.1192  0.7437  -4.0965   0.0000   0.3084
   9.200   1.9775   0.04216   0.03645  -0.1520  0.1163  0.7458  -4.1671   0.0000   0.3067
   9.400   1.9888   0.04294   0.03725  -0.1505  0.1135  0.7477  -4.2393   0.0000   0.3051
   9.600   1.9981   0.04389   0.03821  -0.1487  0.1106  0.7495  -4.3094   0.0000   0.3035
   9.800   2.0081   0.04483   0.03916  -0.1470  0.1081  0.7511  -4.3871   0.0000   0.3019
  10.000   2.0193   0.04573   0.04008  -0.1456  0.1055  0.7528  -4.4683   0.0000   0.3003
  10.200   2.0278   0.04687   0.04122  -0.1438  0.1024  0.7543  -4.5447   0.0000   0.2987
  10.400   2.0354   0.04798   0.04235  -0.1420  0.0994  0.7558  -4.6206   0.0000   0.2971
  10.600   2.0412   0.04907   0.04346  -0.1399  0.0960  0.7574  -4.6917   0.0000   0.2955
  10.800   2.0445   0.05039   0.04479  -0.1376  0.0927  0.7588  -4.7568   0.0000   0.2938
  11.000   2.0498   0.05157   0.04600  -0.1356  0.0898  0.7603  -4.8273   0.0000   0.2922
  11.200   2.0529   0.05300   0.04745  -0.1335  0.0870  0.7619  -4.8922   0.0000   0.2906
  11.400   2.0575   0.05436   0.04884  -0.1316  0.0848  0.7635  -4.9611   0.0000   0.2891
  11.600   2.0617   0.05582   0.05033  -0.1297  0.0824  0.7650  -5.0308   0.0000   0.2876
  11.800   2.0637   0.05755   0.05208  -0.1278  0.0798  0.7664  -5.0956   0.0000   0.2861
  12.000   2.0676   0.05919   0.05376  -0.1262  0.0776  0.7678  -5.1657   0.0000   0.2848
  12.200   2.0697   0.06106   0.05566  -0.1246  0.0751  0.7690  -5.2310   0.0000   0.2834
  12.400   2.0707   0.06309   0.05772  -0.1231  0.0729  0.7701  -5.2944   0.0000   0.2821
  12.600   2.0736   0.06499   0.05966  -0.1217  0.0709  0.7712  -5.3671   0.0000   0.2809
  12.800   2.0744   0.06717   0.06187  -0.1204  0.0688  0.7722  -5.4332   0.0000   0.2798
  13.000   2.0742   0.06951   0.06425  -0.1193  0.0668  0.7731  -5.4964   0.0000   0.2787
  13.200   2.0724   0.07171   0.06650  -0.1179  0.0650  0.7743  -5.5539   0.0000   0.2775
  13.400   2.0681   0.07416   0.06900  -0.1165  0.0631  0.7754  -5.6033   0.0000   0.2764
  13.600   2.0637   0.07670   0.07160  -0.1153  0.0614  0.7764  -5.6514   0.0000   0.2754
  13.800   2.0602   0.07918   0.07413  -0.1144  0.0597  0.7774  -5.7024   0.0000   0.2745
  14.000   2.0548   0.08195   0.07696  -0.1135  0.0580  0.7782  -5.7465   0.0000   0.2737
  14.200   2.0485   0.08490   0.07996  -0.1129  0.0565  0.7790  -5.7868   0.0000   0.2730
  14.400   2.0436   0.08772   0.08285  -0.1125  0.0551  0.7799  -5.8312   0.0000   0.2723
  14.600   2.0369   0.09082   0.08601  -0.1122  0.0537  0.7807  -5.8686   0.0000   0.2718
  14.800   2.0286   0.09419   0.08944  -0.1122  0.0523  0.7816  -5.8993   0.0000   0.2714
  15.000   2.0220   0.09741   0.09273  -0.1124  0.0512  0.7825  -5.9351   0.0000   0.2711
  15.200   2.0154   0.10071   0.09610  -0.1128  0.0500  0.7835  -5.9697   0.0000   0.2708
  15.400   2.0074   0.10425   0.09970  -0.1134  0.0487  0.7844  -5.9981   0.0000   0.2707
  15.600   1.9981   0.10800   0.10352  -0.1144  0.0476  0.7852  -6.0202   0.0000   0.2708
  15.800   1.9909   0.11151   0.10711  -0.1154  0.0467  0.7861  -6.0492   0.0000   0.2709
  16.000   1.9833   0.11509   0.11076  -0.1165  0.0456  0.7869  -6.0754   0.0000   0.2710
  16.200   1.9744   0.11889   0.11462  -0.1180  0.0445  0.7876  -6.0949   0.0000   0.2713
  16.400   1.9644   0.12288   0.11868  -0.1197  0.0435  0.7882  -6.1083   0.0000   0.2718
  16.600   1.9562   0.12664   0.12250  -0.1214  0.0427  0.7889  -6.1279   0.0000   0.2723
  16.800   1.9482   0.13040   0.12634  -0.1232  0.0418  0.7895  -6.1481   0.0000   0.2728
  17.000   1.9390   0.13436   0.13037  -0.1254  0.0409  0.7901  -6.1621   0.0000   0.2735
  17.200   1.9290   0.13842   0.13449  -0.1277  0.0400  0.7906  -6.1709   0.0000   0.2743
  17.400   1.9173   0.14233   0.13848  -0.1298  0.0393  0.7913  -6.1718   0.0000   0.2751
  17.600   1.9091   0.14566   0.14187  -0.1316  0.0387  0.7921  -6.1877   0.0000   0.2756
  17.800   1.8995   0.14922   0.14551  -0.1336  0.0380  0.7928  -6.1955   0.0000   0.2764
  18.000   1.8893   0.15289   0.14924  -0.1359  0.0373  0.7935  -6.1991   0.0000   0.2772
  18.200   1.8807   0.15631   0.15272  -0.1380  0.0366  0.7942  -6.2089   0.0000   0.2780
  18.400   1.8704   0.16005   0.15652  -0.1405  0.0359  0.7949  -6.2089   0.0000   0.2790
  18.600   1.8610   0.16370   0.16024  -0.1430  0.0353  0.7956  -6.2111   0.0000   0.2800
  18.800   1.8556   0.16670   0.16329  -0.1451  0.0346  0.7963  -6.2331   0.0000   0.2807
  19.000   1.8476   0.17019   0.16684  -0.1477  0.0340  0.7969  -6.2431   0.0000   0.2817
  19.200   1.8423   0.17326   0.16996  -0.1500  0.0332  0.7976  -6.2667   0.0000   0.2824
  19.400   1.8338   0.17692   0.17367  -0.1529  0.0326  0.7983  -6.2709   0.0000   0.2837
  19.600   1.8287   0.18001   0.17680  -0.1554  0.0319  0.7991  -6.2933   0.0000   0.2845
  19.800   1.8230   0.18326   0.18011  -0.1581  0.0313  0.7999  -6.3100   0.0000   0.2855
  20.000   1.8197   0.18611   0.18300  -0.1605  0.0306  0.8009  -6.3399   0.0000   0.2862
  20.200   1.8144   0.18933   0.18627  -0.1633  0.0299  0.8018  -6.3572   0.0000   0.2873
  20.400   1.8097   0.19250   0.18947  -0.1661  0.0292  0.8026  -6.3760   0.0000   0.2883
  20.600   1.8068   0.19539   0.19240  -0.1687  0.0286  0.8035  -6.4044   0.0000   0.2892
  20.800   1.8031   0.19845   0.19551  -0.1716  0.0281  0.8043  -6.4271   0.0000   0.2902
  21.000   1.8023   0.20104   0.19813  -0.1740  0.0275  0.8051  -6.4664   0.0000   0.2908
  21.200   1.7988   0.20411   0.20125  -0.1770  0.0269  0.8058  -6.4876   0.0000   0.2919
  21.400   1.7960   0.20706   0.20423  -0.1799  0.0262  0.8064  -6.5125   0.0000   0.2928
  21.600   1.7938   0.20976   0.20695  -0.1826  0.0256  0.8070  -6.5415   0.0000   0.2937
  21.800   1.7893   0.21246   0.20971  -0.1851  0.0252  0.8076  -6.5584   0.0000   0.2945
  22.000   1.7870   0.21475   0.21204  -0.1872  0.0246  0.8082  -6.5891   0.0000   0.2951
  22.200   1.7845   0.21706   0.21438  -0.1894  0.0241  0.8087  -6.6181   0.0000   0.2957
  22.400   1.7790   0.21995   0.21731  -0.1923  0.0235  0.8092  -6.6248   0.0000   0.2968
  22.600   1.7758   0.22241   0.21980  -0.1947  0.0230  0.8098  -6.6467   0.0000   0.2976
  22.800   1.7739   0.22462   0.22205  -0.1968  0.0226  0.8103  -6.6772   0.0000   0.2981
  23.000   1.7703   0.22714   0.22461  -0.1994  0.0222  0.8109  -6.6942   0.0000   0.2990
  23.200   1.7685   0.22933   0.22683  -0.2016  0.0217  0.8116  -6.7248   0.0000   0.2996
  23.400   1.7665   0.23161   0.22914  -0.2040  0.0212  0.8123  -6.7517   0.0000   0.3002
  23.600   1.7622   0.23437   0.23193  -0.2069  0.0207  0.8130  -6.7592   0.0000   0.3014
  23.800   1.7599   0.23674   0.23433  -0.2095  0.0203  0.8137  -6.7819   0.0000   0.3021
  24.000   1.7593   0.23882   0.23644  -0.2117  0.0199  0.8145  -6.8163   0.0000   0.3026
  24.200   1.7571   0.24124   0.23891  -0.2144  0.0196  0.8152  -6.8367   0.0000   0.3035
  24.400   1.7567   0.24335   0.24104  -0.2168  0.0192  0.8159  -6.8705   0.0000   0.3040
  24.600   1.7563   0.24546   0.24319  -0.2192  0.0188  0.8166  -6.9040   0.0000   0.3045
  24.800   1.7532   0.24817   0.24592  -0.2224  0.0184  0.8172  -6.9129   0.0000   0.3057
  25.000   1.7521   0.25049   0.24827  -0.2251  0.0180  0.8180  -6.9370   0.0000   0.3065


