xflr5 v6.47

 Calculated polar for: NACA24018_theta30_Ku4.5_Kl0.5_d0.10_delta2.45

 1 1 Reynolds number fixed          Mach number fixed         

 xtrf =   1.000 (top)        1.000 (bottom)
 Mach =   0.000     Re =     0.400 e 6     Ncrit =   5.000

  alpha     CL        CD       CDp       Cm    Top Xtr Bot Xtr   Cpmin    Chinge    XCp    
 ------- -------- --------- --------- -------- ------- ------- -------- --------- ---------
 -14.800  -0.9426   0.04135   0.03545  -0.0759  0.9939  0.0353  -6.1234   0.0000   0.1453
 -14.600  -0.9410   0.03995   0.03400  -0.0744  0.9935  0.0356  -6.0593   0.0000   0.1472
 -14.400  -0.9371   0.03875   0.03275  -0.0733  0.9928  0.0360  -5.9878   0.0000   0.1485
 -14.200  -0.9296   0.03782   0.03175  -0.0727  0.9918  0.0364  -5.9046   0.0000   0.1489
 -14.000  -0.9201   0.03706   0.03094  -0.0725  0.9910  0.0368  -5.8146   0.0000   0.1486
 -13.800  -0.9104   0.03651   0.03038  -0.0725  0.9903  0.0372  -5.7223   0.0000   0.1481
 -13.600  -0.9104   0.03525   0.02910  -0.0703  0.9890  0.0375  -5.6608   0.0000   0.1509
 -13.400  -0.8992   0.03454   0.02837  -0.0701  0.9872  0.0379  -5.5624   0.0000   0.1505
 -13.000  -0.8764   0.03319   0.02697  -0.0694  0.9828  0.0388  -5.3656   0.0000   0.1498
 -12.800  -0.8609   0.03249   0.02622  -0.0697  0.9790  0.0393  -5.2549   0.0000   0.1484
 -12.600  -0.8420   0.03183   0.02551  -0.0704  0.9751  0.0400  -5.1344   0.0000   0.1459
 -12.400  -0.8247   0.03125   0.02488  -0.0707  0.9724  0.0407  -5.0196   0.0000   0.1439
 -12.200  -0.8104   0.03051   0.02408  -0.0704  0.9684  0.0412  -4.9153   0.0000   0.1430
 -12.000  -0.7940   0.02989   0.02347  -0.0707  0.9664  0.0419  -4.8036   0.0000   0.1410
 -11.800  -0.7830   0.02909   0.02266  -0.0698  0.9620  0.0424  -4.7120   0.0000   0.1412
 -11.600  -0.7649   0.02859   0.02214  -0.0701  0.9603  0.0432  -4.6002   0.0000   0.1389
 -11.400  -0.7552   0.02783   0.02135  -0.0687  0.9556  0.0438  -4.5148   0.0000   0.1399
 -11.200  -0.7375   0.02732   0.02081  -0.0688  0.9539  0.0445  -4.4071   0.0000   0.1378
 -11.000  -0.7296   0.02657   0.02002  -0.0670  0.9488  0.0451  -4.3283   0.0000   0.1396
 -10.800  -0.7192   0.02592   0.01932  -0.0656  0.9447  0.0458  -4.2429   0.0000   0.1405
 -10.600  -0.7074   0.02526   0.01865  -0.0645  0.9410  0.0464  -4.1539   0.0000   0.1409
 -10.400  -0.6996   0.02451   0.01789  -0.0626  0.9351  0.0470  -4.0752   0.0000   0.1429
 -10.200  -0.6881   0.02386   0.01724  -0.0612  0.9298  0.0478  -3.9862   0.0000   0.1436
 -10.000  -0.6731   0.02327   0.01664  -0.0604  0.9250  0.0487  -3.8882   0.0000   0.1430
  -9.800  -0.6619   0.02270   0.01605  -0.0589  0.9179  0.0496  -3.8014   0.0000   0.1441
  -9.600  -0.6440   0.02220   0.01552  -0.0585  0.9136  0.0507  -3.6978   0.0000   0.1423
  -9.400  -0.6256   0.02170   0.01499  -0.0582  0.9090  0.0517  -3.5948   0.0000   0.1403
  -9.200  -0.6039   0.02114   0.01446  -0.0585  0.9065  0.0529  -3.4870   0.0000   0.1365
  -9.000  -0.5857   0.02068   0.01400  -0.0581  0.9011  0.0541  -3.3889   0.0000   0.1342
  -8.800  -0.5640   0.02023   0.01353  -0.0583  0.8972  0.0555  -3.2835   0.0000   0.1301
  -8.600  -0.5400   0.01978   0.01305  -0.0588  0.8946  0.0570  -3.1741   0.0000   0.1246
  -8.400  -0.5219   0.01936   0.01264  -0.0583  0.8876  0.0584  -3.0798   0.0000   0.1217
  -8.200  -0.4980   0.01889   0.01219  -0.0589  0.8839  0.0600  -2.9718   0.0000   0.1152
  -8.000  -0.4755   0.01850   0.01179  -0.0591  0.8781  0.0618  -2.8689   0.0000   0.1091
  -7.800  -0.4507   0.01810   0.01136  -0.0596  0.8724  0.0637  -2.7672   0.0000   0.1008
  -7.600  -0.4233   0.01759   0.01086  -0.0607  0.8672  0.0658  -2.6605   0.0000   0.0893
  -7.400  -0.3965   0.01715   0.01043  -0.0617  0.8593  0.0682  -2.5560   0.0000   0.0768
  -7.200  -0.3649   0.01668   0.00992  -0.0635  0.8528  0.0708  -2.4436   0.0000   0.0579
  -7.000  -0.3333   0.01618   0.00943  -0.0653  0.8443  0.0736  -2.3323   0.0000   0.0350
  -6.800  -0.2984   0.01570   0.00893  -0.0678  0.8363  0.0773  -2.2159   0.0000   0.0028
  -6.600  -0.2625   0.01522   0.00843  -0.0705  0.8268  0.0810  -2.0997   0.0000  -0.0400
  -6.400  -0.2262   0.01478   0.00796  -0.0732  0.8153  0.0855  -1.9844   0.0000  -0.0975
  -6.200  -0.1893   0.01437   0.00751  -0.0761  0.8014  0.0902  -1.8703   0.0000  -0.1787
  -6.000  -0.1542   0.01403   0.00712  -0.0787  0.7850  0.0960  -1.7658   0.0000  -0.2911
  -5.800  -0.1218   0.01374   0.00679  -0.0807  0.7669  0.1021  -1.6713   0.0000  -0.4499
  -5.600  -0.0929   0.01356   0.00652  -0.0821  0.7473  0.1086  -1.5858   0.0000  -0.6800
  -5.200  -0.0427   0.01326   0.00613  -0.0834  0.7089  0.1250  -1.4323   0.0000  -1.7908
  -5.000  -0.0196   0.01315   0.00598  -0.0837  0.6899  0.1355  -1.3632   0.0000  -4.2128
  -4.800   0.0032   0.01306   0.00585  -0.0839  0.6706  0.1483  -1.2956   0.0000  27.6734
  -4.600   0.0260   0.01296   0.00574  -0.0841  0.6518  0.1646  -1.2289   0.0000   3.6101
  -4.400   0.0495   0.01283   0.00563  -0.0846  0.6339  0.1884  -1.1620   0.0000   2.0185
  -4.200   0.0754   0.01261   0.00551  -0.0857  0.6163  0.2308  -1.0934   0.0000   1.4230
  -4.000   0.1087   0.01221   0.00540  -0.0887  0.5974  0.3272  -1.0187   0.0000   1.0881
  -3.800   0.1409   0.01204   0.00539  -0.0910  0.5787  0.3941  -0.9463   0.0000   0.9121
  -3.600   0.1703   0.01202   0.00541  -0.0926  0.5611  0.4335  -0.8786   0.0000   0.8060
  -3.400   0.1981   0.01204   0.00545  -0.0939  0.5445  0.4619  -0.8140   0.0000   0.7328
  -3.200   0.2251   0.01210   0.00549  -0.0949  0.5279  0.4863  -0.8156   0.0000   0.6784
  -3.000   0.2529   0.01217   0.00556  -0.0960  0.5116  0.5103  -0.8437   0.0000   0.6350
  -2.800   0.2804   0.01226   0.00564  -0.0971  0.4962  0.5333  -0.8717   0.0000   0.6002
  -2.600   0.3068   0.01237   0.00572  -0.0980  0.4823  0.5516  -0.8992   0.0000   0.5720
  -2.400   0.3331   0.01248   0.00581  -0.0987  0.4687  0.5679  -0.9267   0.0000   0.5483
  -2.200   0.3593   0.01260   0.00590  -0.0995  0.4552  0.5843  -0.9543   0.0000   0.5280
  -2.000   0.3851   0.01273   0.00601  -0.1002  0.4424  0.5999  -0.9824   0.0000   0.5105
  -1.800   0.4110   0.01287   0.00613  -0.1009  0.4303  0.6164  -1.0115   0.0000   0.4951
  -1.600   0.4363   0.01302   0.00626  -0.1015  0.4194  0.6318  -1.0402   0.0000   0.4816
  -1.400   0.4599   0.01314   0.00638  -0.1017  0.4093  0.6424  -1.0689   0.0000   0.4696
  -1.200   0.4838   0.01330   0.00648  -0.1019  0.3996  0.6498  -1.0983   0.0000   0.4588
  -1.000   0.5054   0.01344   0.00659  -0.1017  0.3901  0.6562  -1.1261   0.0000   0.4490
  -0.800   0.5288   0.01359   0.00670  -0.1019  0.3819  0.6635  -1.1554   0.0000   0.4400
  -0.600   0.5507   0.01373   0.00682  -0.1018  0.3742  0.6699  -1.1837   0.0000   0.4318
  -0.400   0.5728   0.01388   0.00694  -0.1017  0.3675  0.6765  -1.2123   0.0000   0.4241
  -0.200   0.5960   0.01404   0.00706  -0.1019  0.3602  0.6831  -1.2419   0.0000   0.4171
   0.000   0.6160   0.01420   0.00721  -0.1013  0.3539  0.6894  -1.2700   0.0000   0.4104
   0.200   0.6391   0.01435   0.00734  -0.1015  0.3474  0.6962  -1.3013   0.0000   0.4043
   0.400   0.6591   0.01452   0.00749  -0.1010  0.3417  0.7021  -1.3302   0.0000   0.3984
   0.600   0.6797   0.01467   0.00764  -0.1006  0.3367  0.7084  -1.3597   0.0000   0.3929
   0.800   0.7033   0.01484   0.00778  -0.1008  0.3311  0.7149  -1.3917   0.0000   0.3880
   1.000   0.7203   0.01501   0.00795  -0.0997  0.3262  0.7204  -1.4186   0.0000   0.3828
   1.200   0.7411   0.01518   0.00811  -0.0994  0.3218  0.7265  -1.4489   0.0000   0.3782
   1.400   0.7628   0.01535   0.00828  -0.0992  0.3174  0.7324  -1.4813   0.0000   0.3739
   1.600   0.7794   0.01551   0.00845  -0.0980  0.3135  0.7377  -1.5095   0.0000   0.3693
   1.800   0.7993   0.01573   0.00864  -0.0976  0.3095  0.7435  -1.5423   0.0000   0.3653
   2.000   0.8199   0.01589   0.00881  -0.0972  0.3057  0.7489  -1.5758   0.0000   0.3616
   2.200   0.8351   0.01605   0.00899  -0.0957  0.3019  0.7537  -1.6046   0.0000   0.3574
   2.400   0.8539   0.01626   0.00919  -0.0951  0.2980  0.7592  -1.6368   0.0000   0.3538
   2.600   0.8742   0.01650   0.00940  -0.0947  0.2944  0.7643  -1.6704   0.0000   0.3506
   2.800   0.8869   0.01665   0.00959  -0.0928  0.2917  0.7686  -1.6972   0.0000   0.3465
   3.000   0.9038   0.01683   0.00979  -0.0917  0.2884  0.7734  -1.7279   0.0000   0.3431
   3.200   0.9265   0.01707   0.01002  -0.0918  0.2846  0.7786  -1.7643   0.0000   0.3405
   3.400   0.9384   0.01727   0.01023  -0.0898  0.2815  0.7824  -1.7916   0.0000   0.3368
   3.600   0.9499   0.01750   0.01045  -0.0877  0.2786  0.7863  -1.8190   0.0000   0.3332
   3.800   0.9680   0.01769   0.01067  -0.0869  0.2757  0.7907  -1.8535   0.0000   0.3304
   4.000   0.9926   0.01794   0.01092  -0.0875  0.2721  0.7953  -1.8960   0.0000   0.3285
   4.200   1.0006   0.01813   0.01114  -0.0847  0.2693  0.7984  -1.9217   0.0000   0.3247
   4.400   1.0105   0.01836   0.01138  -0.0823  0.2665  0.8018  -1.9493   0.0000   0.3213
   4.600   1.0252   0.01864   0.01165  -0.0810  0.2638  0.8056  -1.9820   0.0000   0.3185
   4.800   1.0478   0.01889   0.01192  -0.0811  0.2611  0.8098  -2.0231   0.0000   0.3167
   5.000   1.0624   0.01912   0.01219  -0.0797  0.2584  0.8129  -2.0558   0.0000   0.3140
   5.200   1.0702   0.01934   0.01243  -0.0770  0.2558  0.8154  -2.0816   0.0000   0.3107
   5.400   1.0810   0.01961   0.01271  -0.0749  0.2531  0.8183  -2.1107   0.0000   0.3077
   5.600   1.0948   0.01993   0.01302  -0.0735  0.2503  0.8215  -2.1464   0.0000   0.3053
   5.800   1.1164   0.02023   0.01335  -0.0736  0.2475  0.8251  -2.1911   0.0000   0.3038
   6.000   1.1338   0.02052   0.01366  -0.0728  0.2447  0.8281  -2.2313   0.0000   0.3018
   6.200   1.1394   0.02077   0.01395  -0.0698  0.2422  0.8302  -2.2579   0.0000   0.2985
   6.400   1.1473   0.02107   0.01426  -0.0672  0.2397  0.8324  -2.2871   0.0000   0.2956
   6.600   1.1578   0.02141   0.01461  -0.0653  0.2372  0.8349  -2.3195   0.0000   0.2931
   6.800   1.1723   0.02178   0.01499  -0.0641  0.2348  0.8377  -2.3565   0.0000   0.2911
   7.000   1.1942   0.02213   0.01538  -0.0644  0.2322  0.8408  -2.4043   0.0000   0.2900
   7.200   1.2113   0.02250   0.01577  -0.0637  0.2293  0.8432  -2.4469   0.0000   0.2884
   7.400   1.2156   0.02281   0.01612  -0.0606  0.2270  0.8448  -2.4736   0.0000   0.2854
   7.600   1.2209   0.02319   0.01651  -0.0578  0.2246  0.8467  -2.5032   0.0000   0.2826
   7.800   1.2278   0.02363   0.01696  -0.0554  0.2222  0.8487  -2.5353   0.0000   0.2800
   8.000   1.2399   0.02400   0.01737  -0.0539  0.2198  0.8508  -2.5757   0.0000   0.2781
   8.200   1.2550   0.02441   0.01782  -0.0531  0.2171  0.8532  -2.6203   0.0000   0.2765
   8.400   1.2745   0.02491   0.01834  -0.0531  0.2142  0.8557  -2.6712   0.0000   0.2756
   8.600   1.2908   0.02545   0.01890  -0.0527  0.2115  0.8579  -2.7178   0.0000   0.2744
   8.800   1.2920   0.02592   0.01939  -0.0494  0.2096  0.8593  -2.7435   0.0000   0.2715
   9.000   1.2961   0.02640   0.01991  -0.0467  0.2076  0.8609  -2.7733   0.0000   0.2690
   9.200   1.3043   0.02684   0.02040  -0.0447  0.2053  0.8627  -2.8126   0.0000   0.2669
   9.400   1.3137   0.02735   0.02096  -0.0431  0.2028  0.8647  -2.8538   0.0000   0.2651
   9.600   1.3250   0.02795   0.02158  -0.0419  0.2000  0.8667  -2.8977   0.0000   0.2636
   9.800   1.3381   0.02866   0.02231  -0.0413  0.1973  0.8687  -2.9459   0.0000   0.2624
  10.000   1.3547   0.02945   0.02312  -0.0413  0.1946  0.8707  -3.0027   0.0000   0.2617
  10.200   1.3660   0.03005   0.02377  -0.0402  0.1921  0.8723  -3.0536   0.0000   0.2603
  10.400   1.3688   0.03063   0.02441  -0.0377  0.1899  0.8736  -3.0899   0.0000   0.2580
  10.600   1.3729   0.03131   0.02513  -0.0355  0.1875  0.8751  -3.1284   0.0000   0.2560
  10.800   1.3778   0.03209   0.02594  -0.0337  0.1852  0.8766  -3.1686   0.0000   0.2542
  11.000   1.3833   0.03300   0.02687  -0.0322  0.1829  0.8783  -3.2110   0.0000   0.2526
  11.200   1.3932   0.03379   0.02772  -0.0312  0.1806  0.8800  -3.2617   0.0000   0.2514
  11.400   1.4047   0.03465   0.02863  -0.0307  0.1777  0.8816  -3.3157   0.0000   0.2505
  11.600   1.4165   0.03568   0.02970  -0.0305  0.1747  0.8831  -3.3721   0.0000   0.2497
  11.800   1.4285   0.03689   0.03093  -0.0306  0.1717  0.8846  -3.4313   0.0000   0.2492
  12.000   1.4311   0.03800   0.03207  -0.0291  0.1695  0.8857  -3.4739   0.0000   0.2477
  12.200   1.4339   0.03888   0.03302  -0.0273  0.1673  0.8869  -3.5173   0.0000   0.2460
  12.400   1.4369   0.03990   0.03410  -0.0257  0.1648  0.8881  -3.5621   0.0000   0.2445
  12.600   1.4396   0.04109   0.03533  -0.0245  0.1622  0.8894  -3.6068   0.0000   0.2431
  12.800   1.4420   0.04248   0.03676  -0.0235  0.1597  0.8908  -3.6501   0.0000   0.2420
  13.000   1.4451   0.04396   0.03828  -0.0228  0.1574  0.8920  -3.6950   0.0000   0.2410
  13.200   1.4526   0.04523   0.03962  -0.0224  0.1548  0.8932  -3.7499   0.0000   0.2402
  13.400   1.4588   0.04671   0.04116  -0.0223  0.1521  0.8943  -3.8035   0.0000   0.2396
  13.600   1.4637   0.04846   0.04296  -0.0223  0.1493  0.8954  -3.8546   0.0000   0.2391
  13.800   1.4672   0.05049   0.04502  -0.0226  0.1468  0.8964  -3.9032   0.0000   0.2388
  14.000   1.4740   0.05227   0.04687  -0.0230  0.1443  0.8973  -3.9607   0.0000   0.2385
  14.200   1.4726   0.05386   0.04853  -0.0220  0.1420  0.8982  -3.9998   0.0000   0.2374
  14.400   1.4707   0.05572   0.05045  -0.0214  0.1396  0.8989  -4.0367   0.0000   0.2365
  14.600   1.4672   0.05786   0.05263  -0.0209  0.1372  0.8997  -4.0688   0.0000   0.2357
  15.000   1.4621   0.06219   0.05708  -0.0205  0.1327  0.9015  -4.1362   0.0000   0.2345
  15.200   1.4607   0.06441   0.05938  -0.0206  0.1302  0.9024  -4.1726   0.0000   0.2341
  15.400   1.4574   0.06700   0.06203  -0.0210  0.1276  0.9032  -4.2038   0.0000   0.2339
  15.600   1.4518   0.06995   0.06502  -0.0217  0.1253  0.9038  -4.2276   0.0000   0.2338
  15.800   1.4482   0.07276   0.06789  -0.0224  0.1231  0.9044  -4.2562   0.0000   0.2338
  16.000   1.4469   0.07537   0.07058  -0.0232  0.1206  0.9050  -4.2920   0.0000   0.2339
  16.200   1.4431   0.07835   0.07363  -0.0242  0.1181  0.9055  -4.3188   0.0000   0.2341
  16.400   1.4366   0.08171   0.07705  -0.0255  0.1157  0.9060  -4.3360   0.0000   0.2344
  16.600   1.4283   0.08534   0.08073  -0.0269  0.1136  0.9065  -4.3465   0.0000   0.2350
  16.800   1.4263   0.08828   0.08376  -0.0282  0.1113  0.9071  -4.3768   0.0000   0.2354
  17.000   1.4220   0.09158   0.08713  -0.0298  0.1089  0.9076  -4.3982   0.0000   0.2359
  17.200   1.4153   0.09522   0.09083  -0.0316  0.1066  0.9080  -4.4109   0.0000   0.2367
  17.400   1.4067   0.09917   0.09483  -0.0336  0.1044  0.9084  -4.4154   0.0000   0.2377
  17.600   1.4004   0.10228   0.09801  -0.0348  0.1024  0.9088  -4.4309   0.0000   0.2381
  17.800   1.3943   0.10529   0.10109  -0.0360  0.1002  0.9092  -4.4468   0.0000   0.2385
  18.000   1.3863   0.10864   0.10450  -0.0375  0.0980  0.9095  -4.4543   0.0000   0.2391
  18.200   1.3771   0.11222   0.10813  -0.0392  0.0959  0.9099  -4.4556   0.0000   0.2400
  18.400   1.3691   0.11566   0.11160  -0.0409  0.0940  0.9102  -4.4605   0.0000   0.2408
  18.600   1.3647   0.11862   0.11464  -0.0424  0.0919  0.9107  -4.4782   0.0000   0.2414
  18.800   1.3584   0.12186   0.11793  -0.0441  0.0897  0.9112  -4.4873   0.0000   0.2423
  19.000   1.3515   0.12518   0.12129  -0.0460  0.0875  0.9117  -4.4934   0.0000   0.2432
  19.200   1.3436   0.12872   0.12484  -0.0481  0.0856  0.9122  -4.4935   0.0000   0.2444
  19.400   1.3414   0.13145   0.12765  -0.0497  0.0837  0.9128  -4.5182   0.0000   0.2451
  19.600   1.3374   0.13455   0.13080  -0.0517  0.0815  0.9134  -4.5352   0.0000   0.2461
  19.800   1.3328   0.13779   0.13407  -0.0540  0.0794  0.9139  -4.5484   0.0000   0.2473
  20.200   1.3269   0.14396   0.14032  -0.0585  0.0756  0.9147  -4.5868   0.0000   0.2497
  20.400   1.3244   0.14705   0.14347  -0.0608  0.0736  0.9151  -4.6071   0.0000   0.2509
  20.600   1.3222   0.15010   0.14654  -0.0632  0.0716  0.9155  -4.6286   0.0000   0.2522
  20.800   1.3186   0.15341   0.14986  -0.0659  0.0698  0.9159  -4.6415   0.0000   0.2537
  21.000   1.3190   0.15613   0.15264  -0.0682  0.0681  0.9163  -4.6731   0.0000   0.2548
  21.200   1.3183   0.15906   0.15562  -0.0707  0.0662  0.9167  -4.6979   0.0000   0.2561
  21.400   1.3169   0.16214   0.15872  -0.0734  0.0644  0.9172  -4.7181   0.0000   0.2575
  21.600   1.3164   0.16509   0.16167  -0.0761  0.0627  0.9177  -4.7428   0.0000   0.2590
  21.800   1.3171   0.16797   0.16461  -0.0787  0.0611  0.9182  -4.7706   0.0000   0.2603
  22.000   1.3174   0.17082   0.16751  -0.0814  0.0594  0.9186  -4.7968   0.0000   0.2617
  22.200   1.3149   0.17329   0.17001  -0.0832  0.0578  0.9190  -4.8152   0.0000   0.2625
  22.400   1.3121   0.17598   0.17270  -0.0854  0.0564  0.9194  -4.8294   0.0000   0.2637
  22.600   1.3117   0.17838   0.17514  -0.0874  0.0551  0.9198  -4.8551   0.0000   0.2646
  22.800   1.3114   0.18084   0.17765  -0.0895  0.0537  0.9202  -4.8794   0.0000   0.2656
  23.000   1.3098   0.18354   0.18038  -0.0919  0.0523  0.9205  -4.8957   0.0000   0.2668
  23.200   1.3094   0.18604   0.18289  -0.0942  0.0509  0.9209  -4.9187   0.0000   0.2679
  23.400   1.3101   0.18840   0.18526  -0.0963  0.0497  0.9213  -4.9469   0.0000   0.2689
  23.600   1.3100   0.19096   0.18789  -0.0987  0.0485  0.9217  -4.9675   0.0000   0.2700
  23.800   1.3097   0.19357   0.19053  -0.1012  0.0471  0.9220  -4.9868   0.0000   0.2713
  24.000   1.3103   0.19602   0.19300  -0.1037  0.0459  0.9224  -5.0116   0.0000   0.2724
  24.200   1.3119   0.19829   0.19526  -0.1059  0.0448  0.9229  -5.0423   0.0000   0.2734
  24.400   1.3119   0.20086   0.19789  -0.1085  0.0437  0.9234  -5.0604   0.0000   0.2746
  24.600   1.3125   0.20335   0.20043  -0.1110  0.0426  0.9239  -5.0811   0.0000   0.2758
  24.800   1.3135   0.20580   0.20291  -0.1135  0.0415  0.9244  -5.1062   0.0000   0.2769
  25.000   1.3147   0.20825   0.20536  -0.1161  0.0404  0.9249  -5.1326   0.0000   0.2781


