xflr5 v6.47

 Calculated polar for: NACA24018_theta30_Ku4.5_Kl0.5_d0.35_delta13.38

 1 1 Reynolds number fixed          Mach number fixed         

 xtrf =   1.000 (top)        1.000 (bottom)
 Mach =   0.000     Re =     1.800 e 6     Ncrit =   5.000

  alpha     CL        CD       CDp       Cm    Top Xtr Bot Xtr   Cpmin    Chinge    XCp    
 ------- -------- --------- --------- -------- ------- ------- -------- --------- ---------
  -9.800   0.8178   0.07512   0.07161  -0.2091  0.5940  0.1503  -1.2330   0.0000   0.5068
  -9.600   0.8256   0.07712   0.07343  -0.2076  0.5488  0.1561  -1.2015   0.0000   0.5019
  -9.400   0.8440   0.07872   0.07487  -0.2075  0.5140  0.1659  -1.1886   0.0000   0.4956
  -9.200   0.8673   0.08011   0.07617  -0.2080  0.4845  0.1785  -1.1852   0.0000   0.4891
  -9.000   0.8946   0.08154   0.07751  -0.2091  0.4588  0.1962  -1.1876   0.0000   0.4825
  -8.800   0.9254   0.08302   0.07894  -0.2107  0.4390  0.2183  -1.1954   0.0000   0.4759
  -8.600   0.9607   0.08473   0.08061  -0.2130  0.4206  0.2446  -1.2078   0.0000   0.4694
  -8.400   1.0044   0.08697   0.08282  -0.2165  0.4007  0.2852  -1.2286   0.0000   0.4628
  -8.200   1.0465   0.08911   0.08492  -0.2198  0.3824  0.3237  -1.2605   0.0000   0.4568
  -8.000   1.0808   0.09079   0.08655  -0.2218  0.3663  0.3487  -1.3010   0.0000   0.4515
  -7.800   1.1121   0.09225   0.08799  -0.2233  0.3553  0.3679  -1.3405   0.0000   0.4467
  -7.600   1.1380   0.09334   0.08901  -0.2240  0.3438  0.3809  -1.3755   0.0000   0.4424
  -7.400   1.1617   0.09421   0.08987  -0.2243  0.3370  0.3918  -1.4087   0.0000   0.4383
  -7.200   1.1852   0.09509   0.09072  -0.2246  0.3295  0.4004  -1.4420   0.0000   0.4343
  -7.000   1.2100   0.09606   0.09166  -0.2250  0.3228  0.4112  -1.4766   0.0000   0.4305
  -6.800   1.2302   0.09666   0.09223  -0.2248  0.3178  0.4162  -1.5070   0.0000   0.4269
  -6.600   1.2541   0.09758   0.09312  -0.2251  0.3110  0.4234  -1.5413   0.0000   0.4234
  -6.400   1.2759   0.09832   0.09382  -0.2251  0.3040  0.4313  -1.5751   0.0000   0.4200
  -6.200   1.2955   0.09888   0.09437  -0.2248  0.3003  0.4364  -1.6071   0.0000   0.4167
  -6.000   1.3167   0.09957   0.09504  -0.2247  0.2956  0.4424  -1.6421   0.0000   0.4135
  -5.800   1.3375   0.10024   0.09568  -0.2246  0.2900  0.4486  -1.6770   0.0000   0.4104
  -5.600   1.3567   0.10078   0.09619  -0.2242  0.2849  0.4530  -1.7103   0.0000   0.4074
  -5.400   1.3755   0.10126   0.09666  -0.2237  0.2823  0.4562  -1.7434   0.0000   0.4045
  -5.200   1.3942   0.10175   0.09713  -0.2233  0.2791  0.4585  -1.7765   0.0000   0.4017
  -5.000   1.4131   0.10226   0.09763  -0.2228  0.2754  0.4626  -1.8101   0.0000   0.3989
  -4.800   1.4320   0.10279   0.09813  -0.2224  0.2709  0.4660  -1.8438   0.0000   0.3962
  -4.600   1.4502   0.10325   0.09857  -0.2218  0.2665  0.4689  -1.8789   0.0000   0.3936
  -4.400   1.4683   0.10370   0.09901  -0.2213  0.2635  0.4721  -1.9149   0.0000   0.3910
  -4.200   1.4860   0.10413   0.09944  -0.2207  0.2598  0.4750  -1.9507   0.0000   0.3885
  -4.000   1.5034   0.10456   0.09983  -0.2200  0.2558  0.4773  -1.9863   0.0000   0.3860
  -3.800   1.5204   0.10496   0.10020  -0.2193  0.2518  0.4790  -2.0216   0.0000   0.3836
  -3.600   1.5372   0.10535   0.10058  -0.2185  0.2489  0.4809  -2.0568   0.0000   0.3812
  -3.400   1.5542   0.10578   0.10102  -0.2178  0.2470  0.4845  -2.0925   0.0000   0.3789
  -3.200   1.5713   0.10621   0.10145  -0.2171  0.2445  0.4877  -2.1284   0.0000   0.3766
  -3.000   1.5879   0.10661   0.10185  -0.2164  0.2414  0.4904  -2.1639   0.0000   0.3743
  -2.800   1.6042   0.10700   0.10221  -0.2156  0.2375  0.4929  -2.1992   0.0000   0.3721
  -2.600   1.6204   0.10739   0.10256  -0.2147  0.2328  0.4953  -2.2356   0.0000   0.3700
  -2.400   1.6369   0.10778   0.10296  -0.2140  0.2306  0.4974  -2.2744   0.0000   0.3678
  -2.200   1.6533   0.10817   0.10334  -0.2132  0.2279  0.4993  -2.3134   0.0000   0.3657
  -2.000   1.6699   0.10858   0.10374  -0.2124  0.2251  0.5011  -2.3528   0.0000   0.3637
  -1.800   1.6856   0.10893   0.10408  -0.2115  0.2221  0.5038  -2.3912   0.0000   0.3616
  -1.600   1.7015   0.10930   0.10443  -0.2107  0.2186  0.5069  -2.4299   0.0000   0.3596
  -1.400   1.7173   0.10966   0.10479  -0.2098  0.2159  0.5097  -2.4688   0.0000   0.3577
  -1.200   1.7331   0.11000   0.10513  -0.2089  0.2137  0.5121  -2.5083   0.0000   0.3557
  -1.000   1.7488   0.11035   0.10548  -0.2080  0.2107  0.5145  -2.5489   0.0000   0.3538
  -0.800   1.7641   0.11070   0.10581  -0.2071  0.2072  0.5168  -2.5903   0.0000   0.3519
  -0.600   1.7793   0.11106   0.10614  -0.2062  0.2030  0.5189  -2.6338   0.0000   0.3500
  -0.400   1.7948   0.11141   0.10649  -0.2053  0.2003  0.5207  -2.6780   0.0000   0.3482
  -0.200   1.8105   0.11178   0.10685  -0.2044  0.1980  0.5224  -2.7228   0.0000   0.3464
   0.000   1.8252   0.11207   0.10715  -0.2034  0.1956  0.5247  -2.7662   0.0000   0.3446
   0.200   1.8394   0.11235   0.10743  -0.2024  0.1929  0.5276  -2.8091   0.0000   0.3428
   0.400   1.8533   0.11265   0.10771  -0.2013  0.1894  0.5302  -2.8517   0.0000   0.3411
   0.600   1.8673   0.11294   0.10799  -0.2002  0.1863  0.5325  -2.8946   0.0000   0.3393
   0.800   1.8814   0.11323   0.10829  -0.1991  0.1835  0.5347  -2.9393   0.0000   0.3376
   1.000   1.8954   0.11355   0.10860  -0.1981  0.1800  0.5368  -2.9877   0.0000   0.3359
   1.200   1.9091   0.11391   0.10893  -0.1970  0.1766  0.5389  -3.0361   0.0000   0.3342
   1.400   1.9231   0.11427   0.10928  -0.1959  0.1733  0.5408  -3.0850   0.0000   0.3325
   1.600   1.9377   0.11464   0.10966  -0.1950  0.1712  0.5427  -3.1355   0.0000   0.3309
   1.800   1.9525   0.11508   0.11009  -0.1940  0.1682  0.5444  -3.1901   0.0000   0.3293
   2.000   1.9643   0.11534   0.11034  -0.1927  0.1648  0.5468  -3.2397   0.0000   0.3277
   2.200   1.9758   0.11567   0.11066  -0.1914  0.1613  0.5492  -3.2888   0.0000   0.3260
   2.400   1.9874   0.11602   0.11102  -0.1901  0.1590  0.5513  -3.3385   0.0000   0.3244
   2.600   1.9988   0.11640   0.11141  -0.1888  0.1559  0.5533  -3.3928   0.0000   0.3228
   2.800   2.0097   0.11683   0.11182  -0.1874  0.1519  0.5552  -3.4492   0.0000   0.3213
   3.000   2.0209   0.11727   0.11224  -0.1861  0.1480  0.5572  -3.5062   0.0000   0.3197
   3.200   2.0331   0.11768   0.11266  -0.1850  0.1454  0.5592  -3.5658   0.0000   0.3182
   3.400   2.0450   0.11813   0.11310  -0.1838  0.1417  0.5614  -3.6251   0.0000   0.3166
   3.600   2.0565   0.11865   0.11359  -0.1826  0.1377  0.5634  -3.6891   0.0000   0.3151
   3.800   2.0692   0.11913   0.11407  -0.1815  0.1351  0.5652  -3.7570   0.0000   0.3136
   4.000   2.0807   0.11956   0.11450  -0.1803  0.1321  0.5667  -3.8234   0.0000   0.3122
   4.200   2.0895   0.11992   0.11485  -0.1787  0.1281  0.5685  -3.8873   0.0000   0.3106
   4.400   2.0987   0.12030   0.11522  -0.1773  0.1247  0.5703  -3.9527   0.0000   0.3091
   4.600   2.1081   0.12068   0.11560  -0.1758  0.1216  0.5720  -4.0211   0.0000   0.3077
   4.800   2.1157   0.12123   0.11615  -0.1743  0.1181  0.5736  -4.0858   0.0000   0.3062
   5.000   2.1232   0.12182   0.11674  -0.1727  0.1151  0.5752  -4.1507   0.0000   0.3047
   5.200   2.1319   0.12232   0.11726  -0.1713  0.1126  0.5769  -4.2197   0.0000   0.3032
   5.400   2.1401   0.12290   0.11782  -0.1699  0.1089  0.5789  -4.2939   0.0000   0.3018
   5.600   2.1481   0.12352   0.11843  -0.1685  0.1052  0.5809  -4.3685   0.0000   0.3004
   5.800   2.1571   0.12413   0.11904  -0.1672  0.1017  0.5829  -4.4460   0.0000   0.2990
   6.000   2.1650   0.12487   0.11975  -0.1658  0.0979  0.5847  -4.5213   0.0000   0.2976
   6.200   2.1739   0.12558   0.12047  -0.1646  0.0953  0.5861  -4.6015   0.0000   0.2962
   6.400   2.1810   0.12651   0.12141  -0.1633  0.0919  0.5873  -4.6812   0.0000   0.2949
   6.600   2.1853   0.12728   0.12217  -0.1617  0.0887  0.5886  -4.7519   0.0000   0.2935
   6.800   2.1906   0.12786   0.12276  -0.1601  0.0859  0.5899  -4.8258   0.0000   0.2921
   7.000   2.1950   0.12854   0.12344  -0.1585  0.0827  0.5912  -4.8975   0.0000   0.2907
   7.200   2.1994   0.12923   0.12414  -0.1570  0.0802  0.5926  -4.9696   0.0000   0.2893
   7.400   2.2025   0.13010   0.12503  -0.1554  0.0777  0.5940  -5.0381   0.0000   0.2880
   7.600   2.2049   0.13101   0.12594  -0.1538  0.0748  0.5954  -5.1050   0.0000   0.2866
   7.800   2.2092   0.13177   0.12672  -0.1524  0.0725  0.5969  -5.1774   0.0000   0.2853
   8.000   2.2122   0.13269   0.12766  -0.1510  0.0696  0.5983  -5.2468   0.0000   0.2840
   8.200   2.2133   0.13387   0.12884  -0.1496  0.0670  0.5997  -5.3103   0.0000   0.2827
   8.400   2.2170   0.13483   0.12982  -0.1483  0.0647  0.6011  -5.3822   0.0000   0.2815
   8.600   2.2191   0.13600   0.13100  -0.1471  0.0622  0.6025  -5.4494   0.0000   0.2803
   8.800   2.2214   0.13722   0.13224  -0.1460  0.0603  0.6040  -5.5175   0.0000   0.2791
   9.000   2.2248   0.13835   0.13339  -0.1450  0.0583  0.6055  -5.5894   0.0000   0.2779
   9.200   2.2257   0.13974   0.13480  -0.1440  0.0563  0.6067  -5.6533   0.0000   0.2768
   9.400   2.2281   0.14100   0.13608  -0.1431  0.0547  0.6078  -5.7220   0.0000   0.2757
   9.600   2.2296   0.14231   0.13742  -0.1423  0.0530  0.6088  -5.7879   0.0000   0.2746
   9.800   2.2281   0.14355   0.13869  -0.1412  0.0512  0.6099  -5.8461   0.0000   0.2735
  10.000   2.2262   0.14486   0.14003  -0.1403  0.0496  0.6110  -5.9037   0.0000   0.2725
  10.200   2.2248   0.14611   0.14132  -0.1394  0.0480  0.6121  -5.9634   0.0000   0.2715
  10.400   2.2222   0.14748   0.14273  -0.1386  0.0463  0.6131  -6.0187   0.0000   0.2705
  10.600   2.2188   0.14897   0.14425  -0.1380  0.0449  0.6140  -6.0705   0.0000   0.2696
  10.800   2.2175   0.15023   0.14555  -0.1374  0.0435  0.6149  -6.1298   0.0000   0.2687
  11.000   2.2137   0.15180   0.14716  -0.1370  0.0420  0.6158  -6.1832   0.0000   0.2679
  11.200   2.2104   0.15330   0.14870  -0.1367  0.0407  0.6166  -6.2388   0.0000   0.2671
  11.400   2.2074   0.15482   0.15026  -0.1365  0.0397  0.6175  -6.2953   0.0000   0.2664
  11.600   2.2052   0.15624   0.15173  -0.1363  0.0386  0.6184  -6.3548   0.0000   0.2656
  11.800   2.2008   0.15794   0.15347  -0.1364  0.0375  0.6193  -6.4051   0.0000   0.2650
  12.000   2.1963   0.15969   0.15527  -0.1366  0.0364  0.6203  -6.4542   0.0000   0.2644
  12.200   2.1940   0.16122   0.15684  -0.1368  0.0355  0.6214  -6.5122   0.0000   0.2638
  12.400   2.1898   0.16297   0.15864  -0.1373  0.0346  0.6225  -6.5620   0.0000   0.2634
  12.600   2.1863   0.16466   0.16038  -0.1378  0.0335  0.6237  -6.6141   0.0000   0.2629
  12.800   2.1803   0.16669   0.16246  -0.1387  0.0326  0.6249  -6.6542   0.0000   0.2626
  13.000   2.1777   0.16838   0.16419  -0.1394  0.0319  0.6264  -6.7095   0.0000   0.2622
  13.200   2.1741   0.17026   0.16613  -0.1404  0.0311  0.6278  -6.7598   0.0000   0.2619
  13.400   2.1698   0.17231   0.16822  -0.1416  0.0302  0.6290  -6.8061   0.0000   0.2617
  13.600   2.1642   0.17420   0.17016  -0.1427  0.0294  0.6298  -6.8458   0.0000   0.2615
  13.800   2.1563   0.17621   0.17223  -0.1440  0.0288  0.6305  -6.8738   0.0000   0.2615
  14.000   2.1510   0.17788   0.17396  -0.1450  0.0281  0.6311  -6.9135   0.0000   0.2613
  14.200   2.1436   0.17983   0.17597  -0.1464  0.0274  0.6317  -6.9422   0.0000   0.2612
  14.400   2.1355   0.18189   0.17808  -0.1480  0.0266  0.6322  -6.9664   0.0000   0.2613
  14.600   2.1279   0.18387   0.18011  -0.1495  0.0259  0.6327  -6.9928   0.0000   0.2613
  14.800   2.1195   0.18598   0.18229  -0.1513  0.0253  0.6333  -7.0134   0.0000   0.2615
  15.000   2.1138   0.18773   0.18409  -0.1527  0.0247  0.6338  -7.0480   0.0000   0.2614
  15.200   2.1053   0.18988   0.18630  -0.1546  0.0241  0.6343  -7.0661   0.0000   0.2617
  15.400   2.0984   0.19182   0.18829  -0.1563  0.0235  0.6349  -7.0922   0.0000   0.2618
  15.600   2.0895   0.19403   0.19056  -0.1585  0.0230  0.6354  -7.1067   0.0000   0.2621
  15.800   2.0822   0.19605   0.19263  -0.1604  0.0225  0.6359  -7.1283   0.0000   0.2623
  16.000   2.0755   0.19799   0.19462  -0.1623  0.0221  0.6365  -7.1530   0.0000   0.2625
  16.200   2.0706   0.19969   0.19637  -0.1639  0.0217  0.6371  -7.1871   0.0000   0.2625
  16.400   2.0624   0.20185   0.19859  -0.1662  0.0212  0.6377  -7.2013   0.0000   0.2629
  16.600   2.0571   0.20363   0.20041  -0.1680  0.0207  0.6384  -7.2317   0.0000   0.2630
  16.800   2.0486   0.20586   0.20270  -0.1705  0.0203  0.6391  -7.2421   0.0000   0.2635
  17.000   2.0426   0.20777   0.20465  -0.1725  0.0198  0.6399  -7.2667   0.0000   0.2638
  17.200   2.0372   0.20959   0.20653  -0.1746  0.0195  0.6408  -7.2938   0.0000   0.2640
  17.400   2.0313   0.21151   0.20849  -0.1767  0.0191  0.6418  -7.3168   0.0000   0.2643
  17.600   2.0276   0.21312   0.21015  -0.1785  0.0187  0.6430  -7.3536   0.0000   0.2643
  17.800   2.0208   0.21523   0.21230  -0.1810  0.0183  0.6441  -7.3689   0.0000   0.2648
  18.000   2.0163   0.21707   0.21419  -0.1833  0.0178  0.6455  -7.3976   0.0000   0.2650
  18.200   2.0125   0.21887   0.21602  -0.1854  0.0174  0.6469  -7.4305   0.0000   0.2652
  18.400   2.0060   0.22105   0.21824  -0.1882  0.0170  0.6479  -7.4439   0.0000   0.2658
  18.600   2.0037   0.22277   0.22000  -0.1902  0.0167  0.6491  -7.4851   0.0000   0.2659


