xflr5 v6.47

 Calculated polar for: NACA24018_theta30_Ku4.5_Kl0.5_d0.17_delta4.56

 1 1 Reynolds number fixed          Mach number fixed         

 xtrf =   1.000 (top)        1.000 (bottom)
 Mach =   0.000     Re =     1.200 e 6     Ncrit =   5.000

  alpha     CL        CD       CDp       Cm    Top Xtr Bot Xtr   Cpmin    Chinge    XCp    
 ------- -------- --------- --------- -------- ------- ------- -------- --------- ---------
 -15.000  -0.9482   0.03205   0.02714  -0.0883  0.9224  0.0298  -6.3876   0.0000   0.1334
 -14.600  -0.9344   0.03031   0.02535  -0.0859  0.9167  0.0304  -6.2037   0.0000   0.1354
 -14.400  -0.9196   0.02964   0.02466  -0.0857  0.9154  0.0307  -6.0833   0.0000   0.1344
 -14.200  -0.9009   0.02905   0.02406  -0.0862  0.9146  0.0312  -5.9498   0.0000   0.1322
 -14.000  -0.8797   0.02855   0.02355  -0.0869  0.9140  0.0316  -5.8085   0.0000   0.1292
 -13.800  -0.8569   0.02811   0.02310  -0.0878  0.9136  0.0321  -5.6626   0.0000   0.1256
 -13.600  -0.8465   0.02742   0.02239  -0.0866  0.9096  0.0325  -5.5603   0.0000   0.1261
 -13.400  -0.8244   0.02697   0.02192  -0.0873  0.9084  0.0329  -5.4189   0.0000   0.1226
 -13.200  -0.8003   0.02651   0.02146  -0.0883  0.9076  0.0335  -5.2725   0.0000   0.1182
 -13.000  -0.7750   0.02609   0.02103  -0.0896  0.9070  0.0341  -5.1270   0.0000   0.1131
 -12.800  -0.7487   0.02572   0.02066  -0.0909  0.9066  0.0347  -4.9818   0.0000   0.1072
 -12.600  -0.7210   0.02537   0.02031  -0.0924  0.9062  0.0354  -4.8339   0.0000   0.1004
 -12.400  -0.6920   0.02505   0.01998  -0.0940  0.9058  0.0360  -4.6835   0.0000   0.0925
 -12.200  -0.6790   0.02465   0.01957  -0.0930  0.9021  0.0364  -4.5835   0.0000   0.0917
 -12.000  -0.6530   0.02433   0.01925  -0.0941  0.9011  0.0371  -4.4454   0.0000   0.0844
 -11.800  -0.6257   0.02402   0.01895  -0.0955  0.9003  0.0378  -4.3045   0.0000   0.0757
 -11.600  -0.5971   0.02372   0.01866  -0.0970  0.8997  0.0387  -4.1612   0.0000   0.0656
 -11.400  -0.5673   0.02344   0.01838  -0.0986  0.8991  0.0397  -4.0165   0.0000   0.0539
 -11.200  -0.5375   0.02318   0.01812  -0.1003  0.8987  0.0405  -3.8736   0.0000   0.0408
 -11.000  -0.5069   0.02291   0.01785  -0.1021  0.8983  0.0415  -3.7365   0.0000   0.0253
 -10.800  -0.4760   0.02265   0.01761  -0.1040  0.8980  0.0425  -3.6003   0.0000   0.0078
 -10.600  -0.4601   0.02248   0.01745  -0.1032  0.8945  0.0433  -3.5050   0.0000   0.0018
 -10.400  -0.4321   0.02223   0.01720  -0.1045  0.8928  0.0443  -3.3793   0.0000  -0.0163
 -10.200  -0.4005   0.02191   0.01689  -0.1064  0.8915  0.0454  -3.2462   0.0000  -0.0411
 -10.000  -0.3664   0.02153   0.01653  -0.1087  0.8904  0.0468  -3.1086   0.0000  -0.0733
  -9.800  -0.3495   0.02145   0.01645  -0.1080  0.8855  0.0479  -3.0152   0.0000  -0.0861
  -9.400  -0.3314   0.02205   0.01709  -0.1042  0.8549  0.0497  -2.8694   0.0000  -0.0913
  -9.200  -0.3001   0.02184   0.01690  -0.1059  0.8482  0.0513  -2.7494   0.0000  -0.1315
  -9.000  -0.2666   0.02155   0.01661  -0.1080  0.8437  0.0529  -2.6262   0.0000  -0.1859
  -8.800  -0.2300   0.02116   0.01623  -0.1106  0.8394  0.0549  -2.4984   0.0000  -0.2648
  -8.600  -0.1885   0.02059   0.01565  -0.1140  0.8328  0.0575  -2.3619   0.0000  -0.3943
  -8.400  -0.1360   0.01961   0.01464  -0.1193  0.8231  0.0603  -2.2052   0.0000  -0.6796
  -8.200  -0.0767   0.01838   0.01333  -0.1259  0.8060  0.0639  -2.0388   0.0000  -1.4789
  -8.000  -0.0293   0.01755   0.01236  -0.1305  0.7749  0.0674  -1.9048   0.0000  -4.4225
  -7.800  -0.0049   0.01748   0.01215  -0.1310  0.7404  0.0697  -1.8181   0.0000  -27.9697
  -7.600   0.0168   0.01758   0.01213  -0.1310  0.7094  0.0723  -1.7376   0.0000   8.3976
  -7.400   0.0388   0.01769   0.01213  -0.1311  0.6812  0.0751  -1.6575   0.0000   3.7697
  -7.200   0.0624   0.01779   0.01215  -0.1315  0.6545  0.0786  -1.5791   0.0000   2.4440
  -7.000   0.0862   0.01788   0.01215  -0.1319  0.6307  0.0821  -1.5018   0.0000   1.8391
  -6.800   0.1119   0.01796   0.01217  -0.1327  0.6104  0.0864  -1.4244   0.0000   1.4794
  -6.600   0.1379   0.01803   0.01218  -0.1335  0.5912  0.0910  -1.3494   0.0000   1.2515
  -6.200   0.1909   0.01817   0.01221  -0.1353  0.5515  0.1025  -1.2013   0.0000   0.9804
  -6.000   0.2183   0.01824   0.01223  -0.1364  0.5324  0.1094  -1.1276   0.0000   0.8925
  -5.800   0.2459   0.01831   0.01226  -0.1375  0.5149  0.1167  -1.0547   0.0000   0.8239
  -5.600   0.2741   0.01838   0.01229  -0.1387  0.4977  0.1260  -0.9821   0.0000   0.7683
  -5.400   0.3030   0.01847   0.01234  -0.1400  0.4804  0.1374  -0.9114   0.0000   0.7226
  -5.200   0.3321   0.01856   0.01241  -0.1414  0.4643  0.1506  -0.8439   0.0000   0.6846
  -5.000   0.3628   0.01868   0.01253  -0.1432  0.4501  0.1699  -0.8326   0.0000   0.6519
  -4.800   0.3980   0.01882   0.01272  -0.1458  0.4350  0.2022  -0.8664   0.0000   0.6224
  -4.600   0.4387   0.01902   0.01301  -0.1496  0.4188  0.2530  -0.9042   0.0000   0.5958
  -4.400   0.4942   0.01939   0.01359  -0.1564  0.4021  0.3481  -0.9528   0.0000   0.5701
  -4.200   0.5317   0.01964   0.01387  -0.1594  0.3888  0.3863  -0.9893   0.0000   0.5527
  -4.000   0.5647   0.01985   0.01410  -0.1615  0.3780  0.4110  -1.0229   0.0000   0.5382
  -3.800   0.5964   0.02006   0.01429  -0.1633  0.3673  0.4314  -1.0558   0.0000   0.5255
  -3.600   0.6283   0.02028   0.01453  -0.1651  0.3592  0.4510  -1.0891   0.0000   0.5140
  -3.400   0.6606   0.02052   0.01476  -0.1671  0.3503  0.4719  -1.1230   0.0000   0.5035
  -3.200   0.6920   0.02075   0.01500  -0.1688  0.3440  0.4882  -1.1565   0.0000   0.4940
  -3.000   0.7233   0.02099   0.01524  -0.1705  0.3370  0.5044  -1.1901   0.0000   0.4854
  -2.800   0.7549   0.02125   0.01549  -0.1722  0.3302  0.5216  -1.2269   0.0000   0.4774
  -2.600   0.7852   0.02149   0.01573  -0.1737  0.3242  0.5372  -1.2629   0.0000   0.4701
  -2.400   0.8150   0.02174   0.01596  -0.1751  0.3169  0.5494  -1.2989   0.0000   0.4633
  -2.200   0.8394   0.02191   0.01610  -0.1754  0.3116  0.5549  -1.3307   0.0000   0.4571
  -2.000   0.8656   0.02211   0.01629  -0.1761  0.3071  0.5600  -1.3644   0.0000   0.4512
  -1.800   0.8910   0.02231   0.01647  -0.1766  0.3027  0.5651  -1.3988   0.0000   0.4457
  -1.600   0.9153   0.02249   0.01663  -0.1769  0.2980  0.5700  -1.4324   0.0000   0.4405
  -1.400   0.9390   0.02267   0.01679  -0.1771  0.2944  0.5744  -1.4664   0.0000   0.4355
  -1.200   0.9644   0.02288   0.01700  -0.1776  0.2906  0.5795  -1.5028   0.0000   0.4307
  -1.000   0.9897   0.02310   0.01721  -0.1781  0.2864  0.5852  -1.5393   0.0000   0.4262
  -0.800   1.0137   0.02331   0.01739  -0.1783  0.2823  0.5904  -1.5749   0.0000   0.4219
  -0.600   1.0369   0.02350   0.01757  -0.1784  0.2786  0.5946  -1.6098   0.0000   0.4177
  -0.400   1.0611   0.02372   0.01778  -0.1787  0.2755  0.5989  -1.6459   0.0000   0.4138
  -0.200   1.0858   0.02395   0.01801  -0.1791  0.2719  0.6041  -1.6827   0.0000   0.4100
   0.000   1.1097   0.02418   0.01823  -0.1793  0.2684  0.6094  -1.7188   0.0000   0.4064
   0.200   1.1326   0.02441   0.01843  -0.1793  0.2648  0.6140  -1.7543   0.0000   0.4029
   0.400   1.1558   0.02463   0.01866  -0.1794  0.2620  0.6181  -1.7925   0.0000   0.3995
   0.600   1.1796   0.02487   0.01890  -0.1796  0.2593  0.6226  -1.8321   0.0000   0.3962
   0.800   1.2026   0.02511   0.01914  -0.1797  0.2559  0.6271  -1.8713   0.0000   0.3931
   1.000   1.2251   0.02535   0.01937  -0.1797  0.2521  0.6317  -1.9101   0.0000   0.3900
   1.200   1.2471   0.02560   0.01959  -0.1795  0.2483  0.6358  -1.9486   0.0000   0.3870
   1.400   1.2700   0.02585   0.01985  -0.1796  0.2459  0.6402  -1.9882   0.0000   0.3842
   1.600   1.2927   0.02610   0.02012  -0.1795  0.2434  0.6448  -2.0293   0.0000   0.3814
   1.800   1.3149   0.02636   0.02038  -0.1795  0.2404  0.6494  -2.0718   0.0000   0.3787
   2.000   1.3366   0.02663   0.02064  -0.1793  0.2371  0.6537  -2.1139   0.0000   0.3761
   2.400   1.3793   0.02718   0.02118  -0.1788  0.2310  0.6610  -2.1980   0.0000   0.3710
   2.600   1.4004   0.02745   0.02146  -0.1785  0.2282  0.6648  -2.2402   0.0000   0.3685
   2.800   1.4215   0.02773   0.02174  -0.1782  0.2251  0.6689  -2.2825   0.0000   0.3661
   3.000   1.4423   0.02804   0.02204  -0.1779  0.2221  0.6729  -2.3249   0.0000   0.3638
   3.200   1.4630   0.02836   0.02234  -0.1776  0.2189  0.6762  -2.3696   0.0000   0.3615
   3.400   1.4832   0.02864   0.02264  -0.1771  0.2168  0.6796  -2.4148   0.0000   0.3593
   3.600   1.5030   0.02892   0.02294  -0.1766  0.2140  0.6832  -2.4597   0.0000   0.3571
   3.800   1.5225   0.02923   0.02325  -0.1760  0.2107  0.6870  -2.5047   0.0000   0.3549
   4.000   1.5419   0.02957   0.02358  -0.1755  0.2074  0.6906  -2.5500   0.0000   0.3528
   4.200   1.5615   0.02992   0.02392  -0.1749  0.2046  0.6937  -2.5988   0.0000   0.3507
   4.400   1.5818   0.03025   0.02427  -0.1745  0.2024  0.6964  -2.6487   0.0000   0.3487
   4.600   1.5998   0.03058   0.02461  -0.1737  0.1995  0.6995  -2.6962   0.0000   0.3466
   4.800   1.6168   0.03095   0.02498  -0.1728  0.1962  0.7027  -2.7440   0.0000   0.3446
   5.000   1.6337   0.03135   0.02538  -0.1718  0.1931  0.7058  -2.7919   0.0000   0.3425
   5.200   1.6515   0.03173   0.02578  -0.1710  0.1908  0.7088  -2.8430   0.0000   0.3406
   5.400   1.6699   0.03212   0.02618  -0.1702  0.1884  0.7116  -2.8952   0.0000   0.3387
   5.600   1.6883   0.03255   0.02662  -0.1696  0.1854  0.7144  -2.9479   0.0000   0.3368
   5.800   1.7067   0.03303   0.02709  -0.1689  0.1823  0.7168  -3.0009   0.0000   0.3350
   6.000   1.7214   0.03344   0.02750  -0.1676  0.1794  0.7194  -3.0496   0.0000   0.3331
   6.200   1.7370   0.03380   0.02789  -0.1664  0.1772  0.7220  -3.1041   0.0000   0.3312
   6.400   1.7525   0.03420   0.02831  -0.1652  0.1742  0.7247  -3.1589   0.0000   0.3293
   6.600   1.7676   0.03469   0.02880  -0.1640  0.1705  0.7274  -3.2141   0.0000   0.3275
   6.800   1.7827   0.03524   0.02935  -0.1628  0.1672  0.7299  -3.2726   0.0000   0.3257
   7.000   1.7988   0.03577   0.02989  -0.1618  0.1645  0.7322  -3.3340   0.0000   0.3240
   7.200   1.8149   0.03636   0.03049  -0.1608  0.1613  0.7344  -3.3973   0.0000   0.3223
   7.400   1.8304   0.03702   0.03114  -0.1598  0.1578  0.7364  -3.4640   0.0000   0.3206
   7.600   1.8423   0.03751   0.03165  -0.1581  0.1553  0.7385  -3.5241   0.0000   0.3187
   7.800   1.8545   0.03801   0.03217  -0.1565  0.1523  0.7406  -3.5859   0.0000   0.3169
   8.000   1.8659   0.03862   0.03279  -0.1548  0.1488  0.7425  -3.6479   0.0000   0.3151
   8.200   1.8765   0.03933   0.03350  -0.1530  0.1456  0.7444  -3.7149   0.0000   0.3134
   8.400   1.8890   0.03996   0.03416  -0.1515  0.1428  0.7465  -3.7866   0.0000   0.3117
   8.600   1.9014   0.04067   0.03488  -0.1501  0.1397  0.7486  -3.8588   0.0000   0.3100
   8.800   1.9136   0.04149   0.03570  -0.1487  0.1365  0.7507  -3.9310   0.0000   0.3084
   9.000   1.9270   0.04229   0.03651  -0.1475  0.1336  0.7526  -4.0063   0.0000   0.3068
   9.200   1.9388   0.04323   0.03746  -0.1461  0.1296  0.7542  -4.0789   0.0000   0.3052
   9.400   1.9483   0.04421   0.03844  -0.1444  0.1259  0.7556  -4.1466   0.0000   0.3036
   9.600   1.9560   0.04497   0.03923  -0.1423  0.1229  0.7571  -4.2101   0.0000   0.3018
   9.800   1.9617   0.04590   0.04018  -0.1401  0.1198  0.7587  -4.2705   0.0000   0.3001
  10.000   1.9673   0.04689   0.04119  -0.1379  0.1171  0.7603  -4.3366   0.0000   0.2983
  10.200   1.9751   0.04777   0.04211  -0.1360  0.1148  0.7619  -4.4084   0.0000   0.2967
  10.400   1.9816   0.04885   0.04321  -0.1341  0.1122  0.7634  -4.4773   0.0000   0.2951
  10.600   1.9876   0.05005   0.04443  -0.1322  0.1094  0.7649  -4.5476   0.0000   0.2935
  10.800   1.9950   0.05126   0.04567  -0.1306  0.1071  0.7666  -4.6221   0.0000   0.2920
  11.000   2.0019   0.05259   0.04703  -0.1290  0.1041  0.7682  -4.6960   0.0000   0.2905
  11.200   2.0064   0.05421   0.04867  -0.1273  0.1009  0.7698  -4.7636   0.0000   0.2890
  11.400   2.0131   0.05574   0.05022  -0.1259  0.0978  0.7712  -4.8374   0.0000   0.2877
  11.600   2.0170   0.05756   0.05206  -0.1244  0.0943  0.7724  -4.9041   0.0000   0.2863
  11.800   2.0214   0.05932   0.05385  -0.1230  0.0916  0.7734  -4.9728   0.0000   0.2850
  12.000   2.0217   0.06095   0.05552  -0.1210  0.0891  0.7744  -5.0311   0.0000   0.2836
  12.200   2.0202   0.06282   0.05743  -0.1191  0.0868  0.7753  -5.0841   0.0000   0.2822
  12.400   2.0195   0.06462   0.05928  -0.1173  0.0849  0.7763  -5.1396   0.0000   0.2808
  12.600   2.0183   0.06650   0.06121  -0.1157  0.0828  0.7773  -5.1933   0.0000   0.2795
  12.800   2.0153   0.06866   0.06341  -0.1141  0.0805  0.7783  -5.2429   0.0000   0.2783
  13.000   2.0128   0.07084   0.06564  -0.1127  0.0786  0.7794  -5.2954   0.0000   0.2772
  13.200   2.0107   0.07311   0.06797  -0.1115  0.0765  0.7804  -5.3500   0.0000   0.2761
  13.400   2.0067   0.07571   0.07062  -0.1105  0.0744  0.7814  -5.3985   0.0000   0.2752
  13.600   2.0030   0.07838   0.07334  -0.1097  0.0727  0.7823  -5.4471   0.0000   0.2743
  13.800   2.0005   0.08098   0.07601  -0.1091  0.0709  0.7832  -5.4993   0.0000   0.2735
  14.000   1.9960   0.08389   0.07898  -0.1087  0.0690  0.7841  -5.5442   0.0000   0.2729
  14.200   1.9900   0.08706   0.08219  -0.1085  0.0673  0.7851  -5.5836   0.0000   0.2724
  14.400   1.9865   0.09000   0.08521  -0.1085  0.0656  0.7861  -5.6305   0.0000   0.2719
  14.600   1.9810   0.09328   0.08855  -0.1087  0.0638  0.7871  -5.6698   0.0000   0.2715
  14.800   1.9734   0.09691   0.09224  -0.1093  0.0621  0.7880  -5.7008   0.0000   0.2714
  15.000   1.9687   0.10028   0.09567  -0.1100  0.0606  0.7889  -5.7408   0.0000   0.2713
  15.200   1.9627   0.10388   0.09934  -0.1109  0.0589  0.7898  -5.7751   0.0000   0.2713
  15.400   1.9548   0.10778   0.10331  -0.1122  0.0574  0.7905  -5.8008   0.0000   0.2715
  15.600   1.9449   0.11135   0.10695  -0.1130  0.0562  0.7910  -5.8186   0.0000   0.2716
  15.800   1.9352   0.11480   0.11048  -0.1139  0.0551  0.7915  -5.8361   0.0000   0.2717
  16.000   1.9245   0.11844   0.11419  -0.1150  0.0539  0.7920  -5.8479   0.0000   0.2720
  16.200   1.9125   0.12227   0.11810  -0.1164  0.0528  0.7925  -5.8535   0.0000   0.2724
  16.400   1.9006   0.12613   0.12202  -0.1180  0.0518  0.7929  -5.8575   0.0000   0.2729
  16.600   1.8914   0.12959   0.12556  -0.1194  0.0508  0.7935  -5.8710   0.0000   0.2733
  16.800   1.8815   0.13312   0.12916  -0.1210  0.0497  0.7940  -5.8808   0.0000   0.2738
  17.000   1.8704   0.13687   0.13299  -0.1228  0.0487  0.7945  -5.8835   0.0000   0.2745
  17.200   1.8582   0.14086   0.13705  -0.1250  0.0477  0.7951  -5.8797   0.0000   0.2754
  17.400   1.8483   0.14454   0.14079  -0.1271  0.0469  0.7958  -5.8842   0.0000   0.2762
  17.600   1.8405   0.14788   0.14420  -0.1290  0.0459  0.7965  -5.8991   0.0000   0.2769
  17.800   1.8313   0.15152   0.14790  -0.1313  0.0449  0.7971  -5.9051   0.0000   0.2778
  18.000   1.8210   0.15536   0.15181  -0.1339  0.0439  0.7978  -5.9047   0.0000   0.2789
  18.200   1.8126   0.15894   0.15543  -0.1363  0.0430  0.7985  -5.9119   0.0000   0.2799
  18.400   1.8059   0.16233   0.15888  -0.1387  0.0421  0.7992  -5.9254   0.0000   0.2808
  18.600   1.7998   0.16567   0.16228  -0.1412  0.0411  0.7999  -5.9404   0.0000   0.2817
  18.800   1.7930   0.16917   0.16583  -0.1439  0.0402  0.8006  -5.9509   0.0000   0.2828
  19.000   1.7855   0.17286   0.16957  -0.1469  0.0393  0.8014  -5.9553   0.0000   0.2840
  19.200   1.7825   0.17588   0.17264  -0.1494  0.0385  0.8023  -5.9820   0.0000   0.2848
  19.400   1.7792   0.17904   0.17585  -0.1520  0.0376  0.8032  -6.0055   0.0000   0.2858
  19.600   1.7755   0.18238   0.17923  -0.1550  0.0367  0.8042  -6.0284   0.0000   0.2869
  19.800   1.7728   0.18568   0.18257  -0.1581  0.0358  0.8053  -6.0560   0.0000   0.2880
  20.000   1.7701   0.18912   0.18606  -0.1614  0.0350  0.8063  -6.0812   0.0000   0.2892
  20.200   1.7695   0.19180   0.18877  -0.1638  0.0342  0.8070  -6.1211   0.0000   0.2899
  20.400   1.7635   0.19469   0.19171  -0.1662  0.0335  0.8075  -6.1336   0.0000   0.2908
  20.600   1.7587   0.19736   0.19442  -0.1684  0.0328  0.8080  -6.1526   0.0000   0.2916
  20.800   1.7535   0.20015   0.19724  -0.1708  0.0321  0.8084  -6.1673   0.0000   0.2925
  21.000   1.7492   0.20278   0.19992  -0.1731  0.0315  0.8088  -6.1866   0.0000   0.2933
  21.200   1.7468   0.20508   0.20225  -0.1751  0.0308  0.8093  -6.2179   0.0000   0.2938
  21.400   1.7428   0.20772   0.20493  -0.1775  0.0300  0.8097  -6.2371   0.0000   0.2947
  21.600   1.7384   0.21044   0.20769  -0.1800  0.0294  0.8102  -6.2524   0.0000   0.2956
  21.800   1.7349   0.21299   0.21027  -0.1824  0.0287  0.8107  -6.2729   0.0000   0.2965
  22.000   1.7323   0.21540   0.21272  -0.1847  0.0282  0.8111  -6.2982   0.0000   0.2972
  22.200   1.7305   0.21766   0.21502  -0.1869  0.0276  0.8117  -6.3283   0.0000   0.2978
  22.400   1.7290   0.21988   0.21727  -0.1890  0.0270  0.8122  -6.3596   0.0000   0.2983
  22.600   1.7253   0.22252   0.21995  -0.1917  0.0264  0.8127  -6.3746   0.0000   0.2993
  22.800   1.7219   0.22510   0.22256  -0.1943  0.0258  0.8134  -6.3908   0.0000   0.3003
  23.000   1.7214   0.22714   0.22463  -0.1964  0.0253  0.8141  -6.4271   0.0000   0.3007
  23.200   1.7196   0.22949   0.22702  -0.1988  0.0247  0.8148  -6.4525   0.0000   0.3014
  23.400   1.7182   0.23184   0.22940  -0.2014  0.0241  0.8156  -6.4792   0.0000   0.3022
  23.600   1.7173   0.23417   0.23175  -0.2039  0.0235  0.8164  -6.5084   0.0000   0.3029
  23.800   1.7147   0.23694   0.23456  -0.2070  0.0230  0.8172  -6.5216   0.0000   0.3041
  24.000   1.7151   0.23924   0.23688  -0.2097  0.0225  0.8180  -6.5561   0.0000   0.3048
  24.200   1.7168   0.24141   0.23909  -0.2123  0.0220  0.8189  -6.5986   0.0000   0.3053
  24.400   1.7176   0.24386   0.24157  -0.2153  0.0215  0.8199  -6.6324   0.0000   0.3061
  24.600   1.7178   0.24660   0.24433  -0.2187  0.0210  0.8208  -6.6576   0.0000   0.3072
  24.800   1.7190   0.24926   0.24701  -0.2221  0.0205  0.8217  -6.6887   0.0000   0.3082
  25.000   1.7178   0.25146   0.24924  -0.2246  0.0201  0.8222  -6.7117   0.0000   0.3089


