xflr5 v6.47

 Calculated polar for: NACA24018_theta30_Ku4.5_Kl0.5_d0.21_delta5.84

 1 1 Reynolds number fixed          Mach number fixed         

 xtrf =   1.000 (top)        1.000 (bottom)
 Mach =   0.000     Re =     1.000 e 6     Ncrit =   5.000

  alpha     CL        CD       CDp       Cm    Top Xtr Bot Xtr   Cpmin    Chinge    XCp    
 ------- -------- --------- --------- -------- ------- ------- -------- --------- ---------
 -14.600  -0.8523   0.03402   0.02910  -0.0912  0.8947  0.0335  -5.8293   0.0000   0.1196
 -14.400  -0.8313   0.03346   0.02853  -0.0921  0.8936  0.0340  -5.6935   0.0000   0.1159
 -14.200  -0.8081   0.03299   0.02804  -0.0932  0.8928  0.0345  -5.5510   0.0000   0.1114
 -14.000  -0.7836   0.03257   0.02761  -0.0945  0.8922  0.0350  -5.4052   0.0000   0.1062
 -13.800  -0.7581   0.03220   0.02722  -0.0959  0.8918  0.0355  -5.2576   0.0000   0.1002
 -13.600  -0.7313   0.03188   0.02688  -0.0974  0.8914  0.0360  -5.1071   0.0000   0.0935
 -13.400  -0.7030   0.03154   0.02654  -0.0992  0.8911  0.0367  -4.9534   0.0000   0.0853
 -13.200  -0.6857   0.03100   0.02600  -0.0992  0.8870  0.0373  -4.8397   0.0000   0.0819
 -13.000  -0.6588   0.03068   0.02568  -0.1006  0.8858  0.0381  -4.6986   0.0000   0.0736
 -12.800  -0.6304   0.03039   0.02539  -0.1023  0.8850  0.0389  -4.5547   0.0000   0.0639
 -12.600  -0.6009   0.03012   0.02511  -0.1040  0.8843  0.0396  -4.4093   0.0000   0.0527
 -12.400  -0.5705   0.02987   0.02485  -0.1059  0.8837  0.0403  -4.2633   0.0000   0.0397
 -12.200  -0.5390   0.02962   0.02461  -0.1080  0.8833  0.0412  -4.1152   0.0000   0.0245
 -12.000  -0.5071   0.02940   0.02439  -0.1101  0.8829  0.0422  -3.9678   0.0000   0.0071
 -11.800  -0.4744   0.02920   0.02419  -0.1123  0.8826  0.0433  -3.8201   0.0000  -0.0132
 -11.600  -0.4585   0.02901   0.02400  -0.1117  0.8789  0.0440  -3.7209   0.0000  -0.0204
 -11.400  -0.4284   0.02881   0.02381  -0.1135  0.8777  0.0451  -3.5839   0.0000  -0.0426
 -11.200  -0.3974   0.02862   0.02364  -0.1154  0.8768  0.0463  -3.4459   0.0000  -0.0691
 -11.000  -0.3661   0.02845   0.02347  -0.1173  0.8761  0.0476  -3.3093   0.0000  -0.1003
 -10.800  -0.3338   0.02827   0.02329  -0.1193  0.8755  0.0487  -3.1776   0.0000  -0.1390
 -10.600  -0.2982   0.02801   0.02305  -0.1218  0.8748  0.0503  -3.0397   0.0000  -0.1927
 -10.400  -0.2609   0.02769   0.02273  -0.1246  0.8742  0.0521  -2.8998   0.0000  -0.2652
 -10.200  -0.2417   0.02760   0.02265  -0.1244  0.8700  0.0532  -2.8053   0.0000  -0.3041
 -10.000  -0.2088   0.02735   0.02242  -0.1265  0.8680  0.0549  -2.6798   0.0000  -0.3996
  -9.800  -0.1743   0.02707   0.02215  -0.1288  0.8667  0.0568  -2.5525   0.0000  -0.5392
  -8.800  -0.0845   0.02878   0.02398  -0.1271  0.8242  0.0648  -2.1402   0.0000  -1.3415
  -8.600  -0.0492   0.02857   0.02379  -0.1294  0.8175  0.0677  -2.0249   0.0000  -2.5244
  -8.400  -0.0100   0.02816   0.02339  -0.1323  0.8116  0.0709  -1.9087   0.0000  -13.6295
  -8.200   0.0329   0.02761   0.02284  -0.1358  0.8051  0.0749  -1.7886   0.0000   4.5693
  -8.000   0.0839   0.02671   0.02192  -0.1406  0.7973  0.0794  -1.6565   0.0000   1.9970
  -7.800   0.1509   0.02508   0.02023  -0.1481  0.7821  0.0862  -1.4998   0.0000   1.2686
  -7.600   0.2120   0.02362   0.01857  -0.1547  0.7440  0.0935  -1.3584   0.0000   1.0051
  -7.400   0.2351   0.02372   0.01845  -0.1550  0.6974  0.0984  -1.2834   0.0000   0.9310
  -7.200   0.2568   0.02404   0.01864  -0.1551  0.6611  0.1040  -1.2150   0.0000   0.8729
  -7.000   0.2799   0.02434   0.01883  -0.1555  0.6320  0.1101  -1.1471   0.0000   0.8217
  -6.800   0.3049   0.02459   0.01900  -0.1561  0.6079  0.1173  -1.0791   0.0000   0.7762
  -6.600   0.3311   0.02484   0.01918  -0.1570  0.5859  0.1257  -1.0103   0.0000   0.7364
  -6.400   0.3586   0.02508   0.01938  -0.1581  0.5648  0.1362  -0.9408   0.0000   0.7015
  -6.200   0.3869   0.02533   0.01958  -0.1594  0.5431  0.1492  -0.8736   0.0000   0.6710
  -5.800   0.4498   0.02588   0.02007  -0.1632  0.5008  0.1894  -0.8602   0.0000   0.6193
  -5.600   0.4883   0.02624   0.02046  -0.1664  0.4815  0.2275  -0.8952   0.0000   0.5962
  -5.400   0.5480   0.02697   0.02135  -0.1738  0.4574  0.3186  -0.9456   0.0000   0.5715
  -5.200   0.5948   0.02759   0.02202  -0.1786  0.4382  0.3754  -0.9887   0.0000   0.5537
  -5.000   0.6318   0.02804   0.02247  -0.1814  0.4235  0.4055  -1.0252   0.0000   0.5399
  -4.800   0.6643   0.02841   0.02282  -0.1833  0.4096  0.4263  -1.0597   0.0000   0.5282
  -4.600   0.6955   0.02877   0.02313  -0.1850  0.3956  0.4428  -1.0941   0.0000   0.5177
  -4.400   0.7251   0.02909   0.02343  -0.1863  0.3843  0.4562  -1.1275   0.0000   0.5081
  -4.200   0.7541   0.02941   0.02371  -0.1876  0.3743  0.4707  -1.1606   0.0000   0.4994
  -4.000   0.7864   0.02982   0.02411  -0.1894  0.3647  0.4877  -1.1965   0.0000   0.4911
  -3.800   0.8174   0.03020   0.02446  -0.1910  0.3554  0.5023  -1.2317   0.0000   0.4835
  -3.600   0.8484   0.03059   0.02485  -0.1926  0.3469  0.5178  -1.2672   0.0000   0.4764
  -3.200   0.9038   0.03124   0.02546  -0.1945  0.3337  0.5378  -1.3339   0.0000   0.4638
  -3.000   0.9286   0.03151   0.02569  -0.1949  0.3281  0.5436  -1.3678   0.0000   0.4581
  -2.800   0.9520   0.03174   0.02588  -0.1950  0.3222  0.5478  -1.4007   0.0000   0.4528
  -2.600   0.9758   0.03199   0.02611  -0.1952  0.3176  0.5517  -1.4341   0.0000   0.4477
  -2.400   1.0002   0.03226   0.02637  -0.1955  0.3122  0.5563  -1.4683   0.0000   0.4428
  -2.200   1.0241   0.03252   0.02660  -0.1958  0.3063  0.5613  -1.5021   0.0000   0.4381
  -2.000   1.0474   0.03278   0.02683  -0.1959  0.3016  0.5659  -1.5357   0.0000   0.4337
  -1.800   1.0704   0.03303   0.02706  -0.1959  0.2977  0.5697  -1.5691   0.0000   0.4294
  -1.600   1.0938   0.03330   0.02732  -0.1961  0.2936  0.5738  -1.6031   0.0000   0.4253
  -1.400   1.1168   0.03357   0.02758  -0.1961  0.2896  0.5780  -1.6392   0.0000   0.4213
  -1.200   1.1396   0.03384   0.02782  -0.1961  0.2857  0.5823  -1.6759   0.0000   0.4175
  -1.000   1.1625   0.03410   0.02809  -0.1962  0.2829  0.5867  -1.7130   0.0000   0.4139
  -0.800   1.1852   0.03437   0.02835  -0.1962  0.2793  0.5906  -1.7500   0.0000   0.4103
  -0.600   1.2075   0.03465   0.02862  -0.1961  0.2750  0.5949  -1.7869   0.0000   0.4069
  -0.400   1.2294   0.03493   0.02888  -0.1960  0.2705  0.5989  -1.8236   0.0000   0.4036
  -0.200   1.2515   0.03521   0.02916  -0.1958  0.2674  0.6029  -1.8606   0.0000   0.4004
   0.000   1.2736   0.03550   0.02944  -0.1957  0.2643  0.6067  -1.8979   0.0000   0.3973
   0.200   1.2957   0.03580   0.02973  -0.1956  0.2612  0.6103  -1.9353   0.0000   0.3943
   0.400   1.3167   0.03608   0.03001  -0.1953  0.2580  0.6143  -1.9721   0.0000   0.3914
   0.600   1.3376   0.03638   0.03030  -0.1950  0.2547  0.6183  -2.0103   0.0000   0.3886
   0.800   1.3589   0.03668   0.03060  -0.1947  0.2520  0.6222  -2.0504   0.0000   0.3858
   1.000   1.3804   0.03699   0.03092  -0.1945  0.2493  0.6259  -2.0928   0.0000   0.3831
   1.200   1.4021   0.03732   0.03124  -0.1944  0.2459  0.6293  -2.1357   0.0000   0.3805
   1.400   1.4217   0.03762   0.03153  -0.1938  0.2424  0.6329  -2.1765   0.0000   0.3779
   1.600   1.4410   0.03793   0.03183  -0.1932  0.2388  0.6364  -2.2170   0.0000   0.3754
   1.800   1.4609   0.03823   0.03214  -0.1927  0.2362  0.6399  -2.2585   0.0000   0.3729
   2.000   1.4811   0.03855   0.03247  -0.1923  0.2335  0.6432  -2.3006   0.0000   0.3705
   2.200   1.5016   0.03890   0.03282  -0.1919  0.2303  0.6466  -2.3433   0.0000   0.3682
   2.400   1.5224   0.03930   0.03320  -0.1916  0.2271  0.6496  -2.3865   0.0000   0.3659
   2.600   1.5398   0.03961   0.03352  -0.1907  0.2242  0.6527  -2.4265   0.0000   0.3636
   2.800   1.5574   0.03994   0.03386  -0.1898  0.2220  0.6559  -2.4679   0.0000   0.3613
   3.000   1.5756   0.04029   0.03423  -0.1890  0.2198  0.6591  -2.5107   0.0000   0.3591
   3.200   1.5943   0.04067   0.03463  -0.1884  0.2169  0.6624  -2.5556   0.0000   0.3570
   3.400   1.6132   0.04111   0.03506  -0.1877  0.2136  0.6656  -2.6024   0.0000   0.3549
   3.600   1.6322   0.04159   0.03552  -0.1872  0.2102  0.6684  -2.6501   0.0000   0.3529
   3.800   1.6501   0.04200   0.03594  -0.1864  0.2075  0.6708  -2.6982   0.0000   0.3508
   4.000   1.6658   0.04233   0.03630  -0.1852  0.2049  0.6733  -2.7434   0.0000   0.3487
   4.200   1.6815   0.04269   0.03667  -0.1840  0.2020  0.6760  -2.7896   0.0000   0.3467
   4.400   1.6974   0.04310   0.03709  -0.1829  0.1988  0.6789  -2.8388   0.0000   0.3447
   4.600   1.7137   0.04357   0.03755  -0.1819  0.1955  0.6817  -2.8892   0.0000   0.3427
   4.800   1.7315   0.04403   0.03802  -0.1811  0.1932  0.6844  -2.9421   0.0000   0.3408
   5.000   1.7497   0.04452   0.03853  -0.1804  0.1904  0.6869  -2.9960   0.0000   0.3390
   5.200   1.7683   0.04510   0.03910  -0.1798  0.1872  0.6892  -3.0510   0.0000   0.3372
   5.400   1.7813   0.04556   0.03957  -0.1783  0.1841  0.6915  -3.1019   0.0000   0.3353
   5.600   1.7934   0.04603   0.04006  -0.1766  0.1816  0.6936  -3.1526   0.0000   0.3333
   5.800   1.8066   0.04648   0.04055  -0.1751  0.1794  0.6958  -3.2054   0.0000   0.3314
   6.000   1.8202   0.04699   0.04107  -0.1737  0.1765  0.6980  -3.2590   0.0000   0.3296
   6.200   1.8337   0.04757   0.04166  -0.1723  0.1731  0.7003  -3.3130   0.0000   0.3278
   6.400   1.8475   0.04824   0.04232  -0.1710  0.1695  0.7027  -3.3677   0.0000   0.3260
   6.600   1.8638   0.04886   0.04297  -0.1701  0.1667  0.7051  -3.4335   0.0000   0.3243
   6.800   1.8802   0.04956   0.04368  -0.1693  0.1638  0.7073  -3.5022   0.0000   0.3227
   7.000   1.8959   0.05038   0.04449  -0.1683  0.1607  0.7091  -3.5700   0.0000   0.3211
   7.200   1.9045   0.05104   0.04517  -0.1663  0.1577  0.7106  -3.6253   0.0000   0.3192
   7.400   1.9140   0.05162   0.04579  -0.1643  0.1549  0.7121  -3.6834   0.0000   0.3174
   7.600   1.9228   0.05227   0.04645  -0.1623  0.1513  0.7138  -3.7422   0.0000   0.3156
   7.800   1.9311   0.05303   0.04721  -0.1603  0.1477  0.7155  -3.8027   0.0000   0.3138
   8.000   1.9411   0.05373   0.04795  -0.1586  0.1452  0.7174  -3.8674   0.0000   0.3121
   8.200   1.9511   0.05455   0.04879  -0.1569  0.1427  0.7192  -3.9395   0.0000   0.3104
   8.400   1.9613   0.05548   0.04974  -0.1553  0.1396  0.7210  -4.0126   0.0000   0.3087
   8.600   1.9712   0.05654   0.05080  -0.1537  0.1364  0.7229  -4.0857   0.0000   0.3071
   8.800   1.9837   0.05753   0.05182  -0.1525  0.1334  0.7250  -4.1654   0.0000   0.3056
   9.000   1.9948   0.05875   0.05306  -0.1513  0.1299  0.7268  -4.2427   0.0000   0.3041
   9.200   2.0049   0.06015   0.05445  -0.1500  0.1264  0.7284  -4.3180   0.0000   0.3026
   9.400   2.0103   0.06100   0.05534  -0.1478  0.1240  0.7296  -4.3811   0.0000   0.3009
   9.600   2.0141   0.06206   0.05644  -0.1455  0.1209  0.7306  -4.4407   0.0000   0.2992
   9.800   2.0165   0.06329   0.05769  -0.1432  0.1176  0.7316  -4.4971   0.0000   0.2976
  10.000   2.0198   0.06447   0.05891  -0.1410  0.1147  0.7327  -4.5557   0.0000   0.2959
  10.200   2.0224   0.06577   0.06023  -0.1389  0.1115  0.7339  -4.6155   0.0000   0.2943
  10.400   2.0236   0.06728   0.06176  -0.1367  0.1084  0.7351  -4.6745   0.0000   0.2928
  10.600   2.0269   0.06871   0.06323  -0.1349  0.1060  0.7364  -4.7404   0.0000   0.2913
  10.800   2.0304   0.07024   0.06481  -0.1332  0.1035  0.7377  -4.8073   0.0000   0.2898
  11.000   2.0325   0.07202   0.06662  -0.1316  0.1009  0.7390  -4.8705   0.0000   0.2885
  11.200   2.0348   0.07387   0.06851  -0.1301  0.0987  0.7403  -4.9344   0.0000   0.2872
  11.400   2.0390   0.07565   0.07033  -0.1288  0.0963  0.7417  -5.0058   0.0000   0.2859
  11.600   2.0412   0.07775   0.07247  -0.1277  0.0936  0.7430  -5.0721   0.0000   0.2848
  11.800   2.0425   0.08010   0.07485  -0.1267  0.0910  0.7444  -5.1359   0.0000   0.2837
  12.000   2.0467   0.08237   0.07717  -0.1260  0.0882  0.7460  -5.2086   0.0000   0.2827
  12.200   2.0475   0.08497   0.07980  -0.1254  0.0852  0.7472  -5.2704   0.0000   0.2818
  12.400   2.0424   0.08721   0.08210  -0.1239  0.0832  0.7479  -5.3128   0.0000   0.2807
  12.600   2.0383   0.08938   0.08433  -0.1227  0.0811  0.7486  -5.3579   0.0000   0.2796
  12.800   2.0328   0.09179   0.08679  -0.1216  0.0789  0.7493  -5.3982   0.0000   0.2787
  13.000   2.0262   0.09440   0.08945  -0.1207  0.0770  0.7499  -5.4341   0.0000   0.2779
  13.200   2.0223   0.09671   0.09183  -0.1199  0.0752  0.7505  -5.4782   0.0000   0.2771
  13.400   2.0167   0.09930   0.09448  -0.1194  0.0734  0.7510  -5.5174   0.0000   0.2764
  13.600   2.0095   0.10216   0.09741  -0.1191  0.0715  0.7516  -5.5508   0.0000   0.2759
  13.800   2.0028   0.10502   0.10033  -0.1190  0.0700  0.7522  -5.5849   0.0000   0.2754
  14.000   1.9974   0.10775   0.10312  -0.1191  0.0683  0.7530  -5.6228   0.0000   0.2750
  14.200   1.9907   0.11068   0.10612  -0.1193  0.0666  0.7537  -5.6551   0.0000   0.2747
  14.400   1.9824   0.11388   0.10938  -0.1198  0.0651  0.7544  -5.6804   0.0000   0.2745
  14.600   1.9757   0.11690   0.11247  -0.1205  0.0637  0.7553  -5.7107   0.0000   0.2744
  14.800   1.9694   0.11995   0.11558  -0.1213  0.0622  0.7561  -5.7413   0.0000   0.2743
  15.000   1.9616   0.12327   0.11898  -0.1224  0.0607  0.7570  -5.7650   0.0000   0.2745
  15.200   1.9525   0.12686   0.12263  -0.1238  0.0593  0.7578  -5.7821   0.0000   0.2748
  15.400   1.9454   0.13026   0.12610  -0.1254  0.0580  0.7587  -5.8057   0.0000   0.2752
  15.600   1.9391   0.13365   0.12956  -0.1270  0.0566  0.7596  -5.8314   0.0000   0.2755
  15.800   1.9318   0.13728   0.13325  -0.1290  0.0551  0.7606  -5.8527   0.0000   0.2761
  16.000   1.9234   0.14119   0.13723  -0.1314  0.0538  0.7615  -5.8685   0.0000   0.2769
  16.200   1.9186   0.14481   0.14091  -0.1339  0.0525  0.7627  -5.8994   0.0000   0.2776
  16.400   1.9138   0.14868   0.14485  -0.1367  0.0511  0.7639  -5.9279   0.0000   0.2785
  16.600   1.9087   0.15280   0.14903  -0.1399  0.0498  0.7651  -5.9528   0.0000   0.2796
  17.000   1.8894   0.15934   0.15570  -0.1438  0.0480  0.7660  -5.9683   0.0000   0.2810
  17.200   1.8803   0.16253   0.15896  -0.1458  0.0470  0.7664  -5.9765   0.0000   0.2817
  17.400   1.8723   0.16551   0.16199  -0.1477  0.0460  0.7669  -5.9898   0.0000   0.2823
  17.600   1.8620   0.16895   0.16549  -0.1501  0.0450  0.7673  -5.9890   0.0000   0.2833
  17.800   1.8525   0.17229   0.16889  -0.1525  0.0441  0.7678  -5.9912   0.0000   0.2842
  18.000   1.8466   0.17508   0.17173  -0.1545  0.0432  0.7683  -6.0105   0.0000   0.2848
  18.200   1.8403   0.17797   0.17468  -0.1566  0.0421  0.7687  -6.0266   0.0000   0.2856
  18.400   1.8332   0.18104   0.17779  -0.1590  0.0411  0.7692  -6.0370   0.0000   0.2864
  18.600   1.8256   0.18421   0.18101  -0.1616  0.0401  0.7697  -6.0435   0.0000   0.2875
  18.800   1.8203   0.18702   0.18387  -0.1639  0.0393  0.7702  -6.0612   0.0000   0.2882
  19.000   1.8166   0.18955   0.18644  -0.1659  0.0383  0.7707  -6.0873   0.0000   0.2888
  19.200   1.8104   0.19256   0.18950  -0.1685  0.0375  0.7712  -6.0975   0.0000   0.2897
  19.400   1.8058   0.19528   0.19226  -0.1709  0.0366  0.7718  -6.1162   0.0000   0.2905
  19.600   1.7999   0.19825   0.19527  -0.1736  0.0358  0.7725  -6.1257   0.0000   0.2915
  19.800   1.7971   0.20067   0.19774  -0.1757  0.0350  0.7732  -6.1532   0.0000   0.2921
  20.000   1.7947   0.20307   0.20017  -0.1779  0.0341  0.7740  -6.1823   0.0000   0.2927
  20.200   1.7897   0.20604   0.20318  -0.1808  0.0333  0.7749  -6.1929   0.0000   0.2938
  20.400   1.7865   0.20878   0.20595  -0.1835  0.0325  0.7758  -6.2133   0.0000   0.2947
  20.600   1.7854   0.21132   0.20854  -0.1861  0.0318  0.7769  -6.2444   0.0000   0.2954
  20.800   1.7845   0.21407   0.21133  -0.1890  0.0310  0.7781  -6.2733   0.0000   0.2962
  21.000   1.7858   0.21681   0.21409  -0.1921  0.0302  0.7795  -6.3177   0.0000   0.2971
  21.200   1.7875   0.22024   0.21755  -0.1963  0.0294  0.7813  -6.3569   0.0000   0.2984
  21.400   1.7873   0.22305   0.22040  -0.1995  0.0287  0.7823  -6.3917   0.0000   0.2993
  21.600   1.7857   0.22495   0.22234  -0.2013  0.0281  0.7827  -6.4282   0.0000   0.2997
  21.800   1.7830   0.22708   0.22451  -0.2034  0.0274  0.7830  -6.4555   0.0000   0.3002
  22.000   1.7792   0.22944   0.22690  -0.2059  0.0268  0.7834  -6.4737   0.0000   0.3010
  22.200   1.7762   0.23165   0.22914  -0.2081  0.0262  0.7837  -6.4971   0.0000   0.3016
  22.400   1.7734   0.23381   0.23133  -0.2104  0.0256  0.7841  -6.5212   0.0000   0.3022
  22.600   1.7709   0.23591   0.23347  -0.2126  0.0251  0.7844  -6.5467   0.0000   0.3028
  22.800   1.7691   0.23782   0.23542  -0.2146  0.0245  0.7848  -6.5779   0.0000   0.3032
  23.000   1.7672   0.23973   0.23735  -0.2166  0.0240  0.7852  -6.6080   0.0000   0.3037
  23.200   1.7633   0.24204   0.23970  -0.2191  0.0235  0.7856  -6.6206   0.0000   0.3045
  23.400   1.7602   0.24420   0.24188  -0.2215  0.0230  0.7860  -6.6388   0.0000   0.3052
  23.600   1.7591   0.24592   0.24363  -0.2234  0.0226  0.7865  -6.6738   0.0000   0.3055
  23.800   1.7577   0.24777   0.24552  -0.2255  0.0221  0.7870  -6.7040   0.0000   0.3059
  24.000   1.7555   0.24981   0.24760  -0.2278  0.0216  0.7874  -6.7269   0.0000   0.3065
  24.200   1.7543   0.25172   0.24954  -0.2301  0.0212  0.7879  -6.7563   0.0000   0.3070
  24.400   1.7530   0.25368   0.25152  -0.2324  0.0207  0.7884  -6.7843   0.0000   0.3075
  24.600   1.7498   0.25608   0.25395  -0.2353  0.0203  0.7890  -6.7926   0.0000   0.3085
  24.800   1.7495   0.25789   0.25579  -0.2375  0.0199  0.7896  -6.8266   0.0000   0.3089
  25.000   1.7499   0.25959   0.25752  -0.2396  0.0195  0.7902  -6.8662   0.0000   0.3092


