xflr5 v6.47

 Calculated polar for: NACA24018_theta30_Ku4.5_Kl0.5_d0.14_delta3.44

 1 1 Reynolds number fixed          Mach number fixed         

 xtrf =   1.000 (top)        1.000 (bottom)
 Mach =   0.000     Re =     1.400 e 6     Ncrit =   5.000

  alpha     CL        CD       CDp       Cm    Top Xtr Bot Xtr   Cpmin    Chinge    XCp    
 ------- -------- --------- --------- -------- ------- ------- -------- --------- ---------
 -14.800  -0.9818   0.02842   0.02351  -0.0869  0.9435  0.0280  -6.4739   0.0000   0.1384
 -14.600  -0.9666   0.02782   0.02289  -0.0868  0.9422  0.0284  -6.3477   0.0000   0.1374
 -14.400  -0.9497   0.02731   0.02237  -0.0869  0.9415  0.0288  -6.2157   0.0000   0.1359
 -14.200  -0.9451   0.02642   0.02145  -0.0849  0.9367  0.0291  -6.1287   0.0000   0.1381
 -14.000  -0.9334   0.02584   0.02084  -0.0840  0.9354  0.0294  -6.0169   0.0000   0.1382
 -13.800  -0.9200   0.02532   0.02029  -0.0834  0.9345  0.0297  -5.9033   0.0000   0.1379
 -13.600  -0.9154   0.02461   0.01956  -0.0811  0.9309  0.0299  -5.8206   0.0000   0.1404
 -13.400  -0.8999   0.02408   0.01901  -0.0807  0.9293  0.0301  -5.7017   0.0000   0.1396
 -13.200  -0.8816   0.02356   0.01848  -0.0807  0.9283  0.0306  -5.5749   0.0000   0.1379
 -13.000  -0.8605   0.02307   0.01799  -0.0812  0.9277  0.0311  -5.4394   0.0000   0.1352
 -12.800  -0.8372   0.02263   0.01754  -0.0820  0.9272  0.0316  -5.2975   0.0000   0.1318
 -12.600  -0.8125   0.02223   0.01714  -0.0830  0.9268  0.0321  -5.1525   0.0000   0.1276
 -12.400  -0.8040   0.02168   0.01658  -0.0811  0.9229  0.0325  -5.0603   0.0000   0.1293
 -12.200  -0.7819   0.02130   0.01619  -0.0815  0.9217  0.0330  -4.9281   0.0000   0.1260
 -12.000  -0.7579   0.02094   0.01582  -0.0822  0.9210  0.0335  -4.7946   0.0000   0.1218
 -11.800  -0.7329   0.02059   0.01547  -0.0831  0.9203  0.0340  -4.6595   0.0000   0.1169
 -11.600  -0.7072   0.02022   0.01511  -0.0842  0.9199  0.0348  -4.5236   0.0000   0.1112
 -11.400  -0.6804   0.01987   0.01477  -0.0854  0.9194  0.0356  -4.3857   0.0000   0.1047
 -11.200  -0.6528   0.01955   0.01445  -0.0867  0.9191  0.0364  -4.2471   0.0000   0.0973
 -11.000  -0.6417   0.01920   0.01410  -0.0850  0.9146  0.0369  -4.1566   0.0000   0.0979
 -10.800  -0.6164   0.01891   0.01380  -0.0859  0.9133  0.0375  -4.0275   0.0000   0.0910
 -10.000  -0.5488   0.01815   0.01308  -0.0832  0.8842  0.0405  -3.6139   0.0000   0.0790
  -9.800  -0.5222   0.01791   0.01284  -0.0841  0.8781  0.0415  -3.4869   0.0000   0.0692
  -9.600  -0.4909   0.01756   0.01249  -0.0858  0.8736  0.0425  -3.3498   0.0000   0.0550
  -9.400  -0.4573   0.01714   0.01208  -0.0880  0.8680  0.0438  -3.2085   0.0000   0.0368
  -9.200  -0.4195   0.01662   0.01156  -0.0909  0.8619  0.0452  -3.0628   0.0000   0.0117
  -9.000  -0.3750   0.01594   0.01085  -0.0950  0.8533  0.0466  -2.9065   0.0000  -0.0262
  -8.800  -0.3238   0.01507   0.00994  -0.1005  0.8411  0.0489  -2.7379   0.0000  -0.0854
  -8.600  -0.2770   0.01435   0.00914  -0.1051  0.8219  0.0510  -2.5842   0.0000  -0.1575
  -8.400  -0.2447   0.01399   0.00868  -0.1071  0.7955  0.0526  -2.4693   0.0000  -0.2182
  -8.200  -0.2219   0.01388   0.00846  -0.1074  0.7661  0.0542  -2.3758   0.0000  -0.2660
  -8.000  -0.2007   0.01385   0.00833  -0.1072  0.7379  0.0559  -2.2867   0.0000  -0.3185
  -7.800  -0.1793   0.01384   0.00822  -0.1072  0.7126  0.0576  -2.1983   0.0000  -0.3845
  -7.600  -0.1561   0.01381   0.00812  -0.1075  0.6906  0.0598  -2.1073   0.0000  -0.4790
  -7.400  -0.1326   0.01379   0.00804  -0.1078  0.6703  0.0618  -2.0171   0.0000  -0.6085
  -7.200  -0.1087   0.01378   0.00795  -0.1082  0.6491  0.0639  -1.9277   0.0000  -0.7986
  -7.000  -0.0841   0.01376   0.00787  -0.1088  0.6280  0.0668  -1.8417   0.0000  -1.1088
  -6.800  -0.0594   0.01375   0.00779  -0.1094  0.6086  0.0692  -1.7569   0.0000  -1.6791
  -6.600  -0.0336   0.01372   0.00771  -0.1101  0.5906  0.0724  -1.6712   0.0000  -3.1823
  -6.200   0.0183   0.01370   0.00758  -0.1117  0.5539  0.0789  -1.5041   0.0000   6.6135
  -6.000   0.0446   0.01369   0.00753  -0.1125  0.5376  0.0831  -1.4251   0.0000   2.8683
  -5.800   0.0716   0.01368   0.00749  -0.1135  0.5229  0.0882  -1.3464   0.0000   1.8921
  -5.600   0.0979   0.01368   0.00746  -0.1144  0.5089  0.0931  -1.2715   0.0000   1.4573
  -5.400   0.1248   0.01369   0.00744  -0.1153  0.4949  0.0991  -1.1988   0.0000   1.2026
  -5.200   0.1515   0.01371   0.00742  -0.1162  0.4796  0.1051  -1.1278   0.0000   1.0395
  -5.000   0.1780   0.01374   0.00740  -0.1171  0.4629  0.1120  -1.0579   0.0000   0.9256
  -4.800   0.2054   0.01377   0.00740  -0.1182  0.4468  0.1216  -0.9879   0.0000   0.8394
  -4.400   0.2614   0.01382   0.00744  -0.1206  0.4194  0.1462  -0.8537   0.0000   0.7205
  -4.200   0.2909   0.01385   0.00749  -0.1221  0.4087  0.1653  -0.8192   0.0000   0.6771
  -3.800   0.3562   0.01391   0.00767  -0.1264  0.3875  0.2291  -0.8798   0.0000   0.6097
  -3.600   0.4015   0.01393   0.00789  -0.1313  0.3765  0.3098  -0.9187   0.0000   0.5806
  -3.400   0.4426   0.01402   0.00811  -0.1352  0.3649  0.3726  -0.9579   0.0000   0.5582
  -3.200   0.4749   0.01412   0.00825  -0.1372  0.3560  0.3992  -0.9917   0.0000   0.5409
  -3.000   0.5060   0.01423   0.00837  -0.1390  0.3464  0.4233  -1.0249   0.0000   0.5260
  -2.800   0.5396   0.01435   0.00853  -0.1412  0.3389  0.4508  -1.0601   0.0000   0.5125
  -2.600   0.5716   0.01448   0.00868  -0.1432  0.3306  0.4751  -1.0945   0.0000   0.5006
  -2.400   0.6014   0.01460   0.00881  -0.1446  0.3255  0.4903  -1.1274   0.0000   0.4902
  -2.200   0.6321   0.01474   0.00897  -0.1462  0.3201  0.5083  -1.1613   0.0000   0.4806
  -1.800   0.6934   0.01504   0.00929  -0.1495  0.3104  0.5418  -1.2300   0.0000   0.4640
  -1.600   0.7243   0.01520   0.00947  -0.1511  0.3054  0.5579  -1.2661   0.0000   0.4567
  -1.400   0.7505   0.01535   0.00959  -0.1518  0.3000  0.5663  -1.2993   0.0000   0.4500
  -1.200   0.7773   0.01550   0.00973  -0.1526  0.2959  0.5727  -1.3342   0.0000   0.4437
  -1.000   0.8024   0.01564   0.00986  -0.1531  0.2921  0.5786  -1.3679   0.0000   0.4378
  -0.800   0.8273   0.01578   0.00998  -0.1535  0.2877  0.5837  -1.4017   0.0000   0.4323
  -0.600   0.8536   0.01595   0.01013  -0.1542  0.2828  0.5900  -1.4369   0.0000   0.4271
  -0.400   0.8786   0.01609   0.01027  -0.1547  0.2799  0.5960  -1.4711   0.0000   0.4222
  -0.200   0.9033   0.01624   0.01041  -0.1551  0.2770  0.6011  -1.5057   0.0000   0.4175
   0.000   0.9291   0.01640   0.01058  -0.1557  0.2735  0.6066  -1.5427   0.0000   0.4131
   0.200   0.9535   0.01658   0.01073  -0.1560  0.2696  0.6120  -1.5786   0.0000   0.4089
   0.400   0.9770   0.01674   0.01087  -0.1562  0.2659  0.6167  -1.6138   0.0000   0.4048
   0.600   1.0026   0.01691   0.01105  -0.1567  0.2632  0.6221  -1.6512   0.0000   0.4010
   0.800   1.0275   0.01708   0.01123  -0.1572  0.2603  0.6281  -1.6882   0.0000   0.3974
   1.000   1.0511   0.01726   0.01139  -0.1574  0.2570  0.6335  -1.7248   0.0000   0.3939
   1.200   1.0759   0.01747   0.01159  -0.1578  0.2530  0.6391  -1.7637   0.0000   0.3905
   1.400   1.1005   0.01766   0.01178  -0.1581  0.2501  0.6450  -1.8044   0.0000   0.3873
   1.600   1.1239   0.01784   0.01196  -0.1583  0.2472  0.6502  -1.8442   0.0000   0.3842
   1.800   1.1473   0.01804   0.01216  -0.1584  0.2440  0.6547  -1.8842   0.0000   0.3811
   2.000   1.1709   0.01826   0.01237  -0.1586  0.2403  0.6595  -1.9246   0.0000   0.3782
   2.200   1.1938   0.01848   0.01257  -0.1587  0.2367  0.6643  -1.9645   0.0000   0.3754
   2.400   1.2164   0.01867   0.01277  -0.1587  0.2349  0.6690  -2.0043   0.0000   0.3727
   2.600   1.2397   0.01888   0.01300  -0.1588  0.2324  0.6738  -2.0469   0.0000   0.3700
   2.800   1.2629   0.01911   0.01323  -0.1589  0.2293  0.6793  -2.0896   0.0000   0.3675
   3.000   1.2850   0.01935   0.01346  -0.1588  0.2259  0.6843  -2.1314   0.0000   0.3650
   3.200   1.3064   0.01960   0.01369  -0.1586  0.2225  0.6883  -2.1727   0.0000   0.3625
   3.400   1.3290   0.01982   0.01393  -0.1586  0.2206  0.6928  -2.2168   0.0000   0.3601
   3.600   1.3510   0.02005   0.01417  -0.1585  0.2180  0.6974  -2.2611   0.0000   0.3578
   3.800   1.3723   0.02030   0.01442  -0.1582  0.2149  0.7018  -2.3048   0.0000   0.3555
   4.000   1.3930   0.02057   0.01467  -0.1579  0.2115  0.7053  -2.3497   0.0000   0.3533
   4.200   1.4136   0.02084   0.01494  -0.1575  0.2084  0.7088  -2.3966   0.0000   0.3511
   4.400   1.4345   0.02108   0.01520  -0.1572  0.2063  0.7127  -2.4445   0.0000   0.3489
   4.600   1.4552   0.02134   0.01547  -0.1569  0.2036  0.7167  -2.4923   0.0000   0.3469
   4.800   1.4755   0.02162   0.01575  -0.1565  0.2006  0.7206  -2.5399   0.0000   0.3448
   5.000   1.4952   0.02193   0.01604  -0.1560  0.1974  0.7241  -2.5869   0.0000   0.3428
   5.200   1.5145   0.02222   0.01634  -0.1554  0.1948  0.7279  -2.6337   0.0000   0.3407
   5.400   1.5343   0.02248   0.01663  -0.1549  0.1929  0.7315  -2.6814   0.0000   0.3388
   5.600   1.5538   0.02277   0.01693  -0.1543  0.1902  0.7352  -2.7334   0.0000   0.3369
   5.800   1.5728   0.02311   0.01726  -0.1537  0.1868  0.7384  -2.7867   0.0000   0.3350
   6.000   1.5906   0.02350   0.01763  -0.1529  0.1828  0.7412  -2.8387   0.0000   0.3330
   6.200   1.6079   0.02382   0.01797  -0.1520  0.1804  0.7443  -2.8902   0.0000   0.3311
   6.400   1.6252   0.02415   0.01833  -0.1511  0.1777  0.7474  -2.9420   0.0000   0.3292
   6.600   1.6425   0.02452   0.01870  -0.1502  0.1750  0.7506  -2.9941   0.0000   0.3274
   6.800   1.6597   0.02492   0.01910  -0.1493  0.1723  0.7534  -3.0463   0.0000   0.3255
   7.000   1.6774   0.02532   0.01950  -0.1485  0.1696  0.7560  -3.0994   0.0000   0.3238
   7.200   1.6955   0.02570   0.01988  -0.1478  0.1672  0.7584  -3.1606   0.0000   0.3221
   7.400   1.7105   0.02607   0.02028  -0.1465  0.1638  0.7610  -3.2188   0.0000   0.3202
   7.600   1.7247   0.02653   0.02073  -0.1451  0.1599  0.7635  -3.2760   0.0000   0.3184
   7.800   1.7394   0.02698   0.02119  -0.1439  0.1570  0.7661  -3.3343   0.0000   0.3166
   8.000   1.7548   0.02743   0.02166  -0.1427  0.1545  0.7687  -3.3944   0.0000   0.3149
   8.200   1.7700   0.02794   0.02217  -0.1416  0.1513  0.7712  -3.4602   0.0000   0.3132
   8.400   1.7846   0.02853   0.02275  -0.1404  0.1476  0.7734  -3.5263   0.0000   0.3115
   8.600   1.8008   0.02906   0.02329  -0.1395  0.1448  0.7753  -3.5960   0.0000   0.3099
   8.800   1.8130   0.02954   0.02378  -0.1378  0.1417  0.7775  -3.6583   0.0000   0.3081
   9.000   1.8237   0.03013   0.02439  -0.1360  0.1381  0.7795  -3.7192   0.0000   0.3063
   9.200   1.8343   0.03077   0.02504  -0.1342  0.1350  0.7815  -3.7859   0.0000   0.3045
   9.400   1.8470   0.03133   0.02562  -0.1328  0.1327  0.7837  -3.8574   0.0000   0.3029
   9.600   1.8595   0.03195   0.02625  -0.1313  0.1298  0.7858  -3.9291   0.0000   0.3012
   9.800   1.8705   0.03274   0.02703  -0.1298  0.1261  0.7878  -3.9983   0.0000   0.2996
  10.000   1.8824   0.03351   0.02782  -0.1283  0.1230  0.7896  -4.0747   0.0000   0.2980
  10.200   1.8944   0.03433   0.02865  -0.1270  0.1193  0.7912  -4.1519   0.0000   0.2965
  10.400   1.9042   0.03524   0.02955  -0.1254  0.1159  0.7927  -4.2241   0.0000   0.2949
  10.600   1.9112   0.03601   0.03035  -0.1232  0.1136  0.7944  -4.2902   0.0000   0.2931
  10.800   1.9189   0.03679   0.03116  -0.1213  0.1111  0.7960  -4.3601   0.0000   0.2914
  11.000   1.9251   0.03774   0.03213  -0.1192  0.1081  0.7975  -4.4270   0.0000   0.2897
  11.200   1.9306   0.03880   0.03321  -0.1171  0.1050  0.7991  -4.4925   0.0000   0.2881
  11.400   1.9378   0.03980   0.03424  -0.1154  0.1023  0.8008  -4.5627   0.0000   0.2865
  11.600   1.9441   0.04099   0.03544  -0.1136  0.0992  0.8024  -4.6308   0.0000   0.2850
  11.800   1.9495   0.04232   0.03679  -0.1119  0.0963  0.8039  -4.6992   0.0000   0.2835
  12.000   1.9572   0.04355   0.03805  -0.1105  0.0940  0.8054  -4.7767   0.0000   0.2821
  12.200   1.9635   0.04497   0.03949  -0.1091  0.0912  0.8067  -4.8514   0.0000   0.2808
  12.400   1.9678   0.04665   0.04118  -0.1077  0.0883  0.8080  -4.9225   0.0000   0.2795
  12.600   1.9733   0.04810   0.04266  -0.1063  0.0861  0.8092  -4.9968   0.0000   0.2782
  12.800   1.9737   0.04962   0.04423  -0.1044  0.0837  0.8104  -5.0566   0.0000   0.2767
  13.000   1.9724   0.05140   0.04605  -0.1025  0.0814  0.8114  -5.1111   0.0000   0.2753
  13.200   1.9722   0.05315   0.04784  -0.1008  0.0794  0.8124  -5.1691   0.0000   0.2740
  13.400   1.9724   0.05493   0.04966  -0.0993  0.0772  0.8134  -5.2280   0.0000   0.2727
  13.600   1.9702   0.05701   0.05179  -0.0978  0.0748  0.8144  -5.2795   0.0000   0.2715
  13.800   1.9670   0.05931   0.05413  -0.0965  0.0726  0.8154  -5.3279   0.0000   0.2704
  14.000   1.9662   0.06150   0.05636  -0.0955  0.0707  0.8165  -5.3829   0.0000   0.2694
  14.200   1.9636   0.06396   0.05887  -0.0946  0.0687  0.8176  -5.4326   0.0000   0.2685
  14.400   1.9590   0.06675   0.06172  -0.0939  0.0668  0.8185  -5.4749   0.0000   0.2677
  14.600   1.9561   0.06942   0.06445  -0.0934  0.0653  0.8195  -5.5226   0.0000   0.2670
  14.800   1.9531   0.07220   0.06728  -0.0931  0.0637  0.8203  -5.5706   0.0000   0.2664
  15.000   1.9479   0.07529   0.07043  -0.0930  0.0621  0.8211  -5.6115   0.0000   0.2659
  15.200   1.9403   0.07876   0.07397  -0.0931  0.0605  0.8219  -5.6436   0.0000   0.2655
  15.400   1.9347   0.08210   0.07737  -0.0933  0.0592  0.8227  -5.6813   0.0000   0.2652
  15.600   1.9291   0.08552   0.08086  -0.0938  0.0577  0.8234  -5.7183   0.0000   0.2650
  15.800   1.9214   0.08926   0.08467  -0.0945  0.0562  0.8241  -5.7471   0.0000   0.2650
  16.000   1.9117   0.09332   0.08879  -0.0955  0.0547  0.8246  -5.7675   0.0000   0.2651
  16.200   1.9006   0.09716   0.09271  -0.0962  0.0537  0.8251  -5.7817   0.0000   0.2651
  16.400   1.8900   0.10083   0.09646  -0.0969  0.0527  0.8257  -5.7967   0.0000   0.2652
  16.600   1.8784   0.10468   0.10039  -0.0979  0.0517  0.8261  -5.8065   0.0000   0.2654
  16.800   1.8657   0.10872   0.10450  -0.0991  0.0507  0.8266  -5.8108   0.0000   0.2658
  17.000   1.8524   0.11288   0.10874  -0.1004  0.0498  0.8270  -5.8105   0.0000   0.2662
  17.200   1.8385   0.11712   0.11306  -0.1020  0.0489  0.8275  -5.8065   0.0000   0.2669
  17.400   1.8275   0.12093   0.11695  -0.1035  0.0481  0.8280  -5.8125   0.0000   0.2674
  17.600   1.8167   0.12473   0.12083  -0.1051  0.0473  0.8286  -5.8186   0.0000   0.2680
  17.800   1.8058   0.12862   0.12479  -0.1069  0.0465  0.8291  -5.8231   0.0000   0.2687
  18.000   1.7945   0.13263   0.12887  -0.1090  0.0455  0.8297  -5.8266   0.0000   0.2695
  18.200   1.7824   0.13682   0.13312  -0.1113  0.0447  0.8302  -5.8247   0.0000   0.2705
  18.400   1.7704   0.14104   0.13741  -0.1137  0.0438  0.8307  -5.8210   0.0000   0.2717
  18.600   1.7622   0.14470   0.14114  -0.1159  0.0431  0.8313  -5.8338   0.0000   0.2726
  18.800   1.7556   0.14812   0.14462  -0.1180  0.0422  0.8319  -5.8529   0.0000   0.2734
  19.000   1.7463   0.15203   0.14858  -0.1206  0.0413  0.8325  -5.8571   0.0000   0.2745
  19.200   1.7374   0.15589   0.15250  -0.1233  0.0403  0.8330  -5.8614   0.0000   0.2757
  19.400   1.7296   0.15959   0.15625  -0.1259  0.0394  0.8337  -5.8701   0.0000   0.2769
  19.600   1.7231   0.16314   0.15985  -0.1286  0.0387  0.8344  -5.8839   0.0000   0.2780
  19.800   1.7198   0.16622   0.16298  -0.1309  0.0378  0.8352  -5.9125   0.0000   0.2788
  20.000   1.7137   0.16984   0.16665  -0.1337  0.0370  0.8359  -5.9252   0.0000   0.2800
  20.200   1.7097   0.17317   0.17002  -0.1365  0.0361  0.8367  -5.9474   0.0000   0.2811
  20.400   1.7034   0.17698   0.17387  -0.1397  0.0353  0.8375  -5.9549   0.0000   0.2826
  20.600   1.7022   0.18000   0.17693  -0.1423  0.0345  0.8382  -5.9896   0.0000   0.2835
  20.800   1.7004   0.18318   0.18015  -0.1452  0.0337  0.8389  -6.0196   0.0000   0.2845
  21.000   1.6975   0.18658   0.18359  -0.1483  0.0329  0.8395  -6.0419   0.0000   0.2858
  21.200   1.6955   0.18967   0.18671  -0.1512  0.0320  0.8401  -6.0695   0.0000   0.2868
  21.600   1.6859   0.19537   0.19249  -0.1558  0.0308  0.8410  -6.1007   0.0000   0.2887
  21.800   1.6829   0.19787   0.19504  -0.1578  0.0301  0.8414  -6.1263   0.0000   0.2893
  22.000   1.6779   0.20072   0.19793  -0.1603  0.0295  0.8419  -6.1381   0.0000   0.2903
  22.200   1.6746   0.20325   0.20049  -0.1624  0.0288  0.8424  -6.1605   0.0000   0.2911
  22.400   1.6696   0.20617   0.20345  -0.1650  0.0281  0.8429  -6.1693   0.0000   0.2922
  22.600   1.6660   0.20883   0.20614  -0.1673  0.0276  0.8434  -6.1867   0.0000   0.2931
  22.800   1.6649   0.21102   0.20836  -0.1693  0.0270  0.8440  -6.2205   0.0000   0.2936
  23.000   1.6628   0.21346   0.21084  -0.1715  0.0263  0.8445  -6.2455   0.0000   0.2943
  23.200   1.6590   0.21626   0.21367  -0.1742  0.0257  0.8450  -6.2576   0.0000   0.2954
  23.400   1.6570   0.21874   0.21618  -0.1766  0.0251  0.8454  -6.2813   0.0000   0.2963
  23.600   1.6544   0.22137   0.21884  -0.1792  0.0245  0.8459  -6.2994   0.0000   0.2972
  23.800   1.6525   0.22389   0.22140  -0.1817  0.0241  0.8465  -6.3211   0.0000   0.2981
  24.000   1.6525   0.22606   0.22360  -0.1840  0.0236  0.8470  -6.3586   0.0000   0.2987
  24.200   1.6523   0.22830   0.22587  -0.1863  0.0231  0.8476  -6.3935   0.0000   0.2993
  24.400   1.6491   0.23115   0.22876  -0.1893  0.0226  0.8482  -6.4039   0.0000   0.3006
  24.600   1.6479   0.23365   0.23128  -0.1919  0.0221  0.8489  -6.4288   0.0000   0.3015
  24.800   1.6477   0.23603   0.23368  -0.1945  0.0216  0.8496  -6.4596   0.0000   0.3023
  25.000   1.6478   0.23846   0.23615  -0.1973  0.0212  0.8504  -6.4901   0.0000   0.3031


