xflr5 v6.47

 Calculated polar for: NACA24018_theta30_Ku4.5_Kl0.5_d0.35_delta13.38

 1 1 Reynolds number fixed          Mach number fixed         

 xtrf =   1.000 (top)        1.000 (bottom)
 Mach =   0.000     Re =     0.800 e 6     Ncrit =   5.000

  alpha     CL        CD       CDp       Cm    Top Xtr Bot Xtr   Cpmin    Chinge    XCp    
 ------- -------- --------- --------- -------- ------- ------- -------- --------- ---------
  -8.600   0.9759   0.08789   0.08459  -0.2161  0.6442  0.3600  -1.1807   0.0000   0.4690
  -8.400   1.0256   0.08785   0.08407  -0.2197  0.5713  0.3835  -1.2339   0.0000   0.4615
  -8.200   1.0410   0.08955   0.08554  -0.2191  0.5294  0.3946  -1.2553   0.0000   0.4572
  -8.000   1.0587   0.09089   0.08674  -0.2187  0.5000  0.4041  -1.2809   0.0000   0.4529
  -7.800   1.0785   0.09208   0.08780  -0.2186  0.4763  0.4128  -1.3092   0.0000   0.4486
  -7.600   1.0981   0.09307   0.08869  -0.2184  0.4560  0.4199  -1.3381   0.0000   0.4444
  -7.400   1.1180   0.09399   0.08952  -0.2182  0.4375  0.4282  -1.3674   0.0000   0.4403
  -7.200   1.1411   0.09510   0.09052  -0.2186  0.4196  0.4353  -1.3999   0.0000   0.4362
  -7.000   1.1599   0.09583   0.09116  -0.2182  0.4044  0.4404  -1.4286   0.0000   0.4324
  -6.800   1.1773   0.09636   0.09163  -0.2176  0.3916  0.4465  -1.4561   0.0000   0.4288
  -6.600   1.1987   0.09718   0.09239  -0.2176  0.3801  0.4532  -1.4875   0.0000   0.4251
  -6.400   1.2239   0.09829   0.09341  -0.2182  0.3676  0.4592  -1.5232   0.0000   0.4215
  -6.200   1.2377   0.09848   0.09358  -0.2170  0.3598  0.4633  -1.5490   0.0000   0.4182
  -6.000   1.2537   0.09882   0.09389  -0.2162  0.3521  0.4672  -1.5770   0.0000   0.4150
  -5.600   1.2925   0.10003   0.09502  -0.2155  0.3382  0.4749  -1.6424   0.0000   0.4087
  -5.400   1.3170   0.10105   0.09597  -0.2160  0.3304  0.4788  -1.6809   0.0000   0.4056
  -5.200   1.3348   0.10156   0.09643  -0.2154  0.3237  0.4813  -1.7126   0.0000   0.4026
  -5.000   1.3483   0.10168   0.09655  -0.2142  0.3193  0.4834  -1.7400   0.0000   0.3998
  -4.800   1.3623   0.10184   0.09671  -0.2130  0.3144  0.4857  -1.7680   0.0000   0.3970
  -4.600   1.3771   0.10210   0.09694  -0.2120  0.3090  0.4882  -1.7969   0.0000   0.3943
  -4.400   1.3930   0.10247   0.09728  -0.2112  0.3039  0.4908  -1.8275   0.0000   0.3916
  -4.200   1.4112   0.10295   0.09775  -0.2106  0.2999  0.4935  -1.8631   0.0000   0.3890
  -4.000   1.4311   0.10359   0.09837  -0.2104  0.2955  0.4964  -1.9010   0.0000   0.3864
  -3.800   1.4531   0.10444   0.09918  -0.2104  0.2910  0.4997  -1.9415   0.0000   0.3839
  -3.600   1.4724   0.10509   0.09979  -0.2101  0.2863  0.5023  -1.9792   0.0000   0.3814
  -3.400   1.4848   0.10514   0.09985  -0.2087  0.2833  0.5041  -2.0088   0.0000   0.3790
  -3.200   1.4979   0.10524   0.09996  -0.2075  0.2799  0.5058  -2.0394   0.0000   0.3766
  -3.000   1.5114   0.10540   0.10012  -0.2063  0.2759  0.5076  -2.0706   0.0000   0.3743
  -2.800   1.5253   0.10562   0.10032  -0.2051  0.2720  0.5095  -2.1023   0.0000   0.3720
  -2.600   1.5397   0.10592   0.10059  -0.2041  0.2679  0.5115  -2.1348   0.0000   0.3697
  -2.400   1.5559   0.10629   0.10097  -0.2033  0.2651  0.5140  -2.1696   0.0000   0.3675
  -2.200   1.5744   0.10684   0.10152  -0.2029  0.2622  0.5170  -2.2102   0.0000   0.3654
  -2.000   1.5954   0.10762   0.10228  -0.2028  0.2587  0.5203  -2.2546   0.0000   0.3633
  -1.800   1.6183   0.10859   0.10322  -0.2030  0.2550  0.5232  -2.3018   0.0000   0.3613
  -1.600   1.6291   0.10861   0.10324  -0.2014  0.2517  0.5246  -2.3332   0.0000   0.3592
  -1.400   1.6404   0.10866   0.10329  -0.2000  0.2486  0.5260  -2.3654   0.0000   0.3571
  -1.200   1.6523   0.10872   0.10337  -0.1986  0.2458  0.5274  -2.3986   0.0000   0.3551
  -1.000   1.6644   0.10883   0.10348  -0.1972  0.2426  0.5289  -2.4322   0.0000   0.3530
  -0.800   1.6767   0.10898   0.10364  -0.1959  0.2394  0.5304  -2.4675   0.0000   0.3511
  -0.600   1.6893   0.10919   0.10384  -0.1946  0.2363  0.5321  -2.5034   0.0000   0.3491
  -0.400   1.7028   0.10951   0.10415  -0.1935  0.2333  0.5343  -2.5413   0.0000   0.3472
  -0.200   1.7186   0.10993   0.10459  -0.1927  0.2310  0.5369  -2.5852   0.0000   0.3454
   0.000   1.7369   0.11056   0.10522  -0.1923  0.2281  0.5400  -2.6331   0.0000   0.3436
   0.200   1.7595   0.11158   0.10623  -0.1925  0.2244  0.5434  -2.6879   0.0000   0.3419
   0.400   1.7752   0.11212   0.10675  -0.1917  0.2208  0.5454  -2.7326   0.0000   0.3401
   0.600   1.7844   0.11221   0.10684  -0.1900  0.2177  0.5464  -2.7675   0.0000   0.3383
   0.800   1.7940   0.11231   0.10696  -0.1884  0.2152  0.5475  -2.8033   0.0000   0.3365
   1.000   1.8039   0.11244   0.10711  -0.1868  0.2126  0.5485  -2.8395   0.0000   0.3347
   1.200   1.8137   0.11260   0.10729  -0.1853  0.2098  0.5496  -2.8773   0.0000   0.3329
   1.400   1.8234   0.11278   0.10748  -0.1837  0.2070  0.5508  -2.9180   0.0000   0.3311
   1.600   1.8331   0.11300   0.10770  -0.1822  0.2043  0.5521  -2.9590   0.0000   0.3294
   1.800   1.8435   0.11330   0.10800  -0.1807  0.2015  0.5536  -3.0013   0.0000   0.3277
   2.000   1.8556   0.11359   0.10831  -0.1795  0.1992  0.5553  -3.0466   0.0000   0.3260
   2.200   1.8685   0.11400   0.10873  -0.1784  0.1960  0.5573  -3.0954   0.0000   0.3244
   2.400   1.8825   0.11457   0.10930  -0.1775  0.1924  0.5596  -3.1482   0.0000   0.3228
   2.600   1.9008   0.11557   0.11028  -0.1773  0.1886  0.5632  -3.2093   0.0000   0.3214
   2.800   1.9218   0.11669   0.11139  -0.1774  0.1856  0.5666  -3.2758   0.0000   0.3200
   3.000   1.9303   0.11681   0.11154  -0.1758  0.1832  0.5675  -3.3219   0.0000   0.3183
   3.200   1.9381   0.11695   0.11171  -0.1740  0.1804  0.5682  -3.3705   0.0000   0.3167
   3.400   1.9450   0.11720   0.11197  -0.1723  0.1773  0.5690  -3.4179   0.0000   0.3151
   3.600   1.9513   0.11755   0.11232  -0.1705  0.1744  0.5698  -3.4644   0.0000   0.3135
   3.800   1.9587   0.11784   0.11263  -0.1688  0.1720  0.5706  -3.5134   0.0000   0.3119
   4.000   1.9669   0.11814   0.11296  -0.1673  0.1693  0.5714  -3.5641   0.0000   0.3103
   4.200   1.9751   0.11851   0.11334  -0.1658  0.1661  0.5723  -3.6203   0.0000   0.3088
   4.400   1.9827   0.11895   0.11378  -0.1643  0.1627  0.5732  -3.6762   0.0000   0.3072
   4.600   1.9907   0.11940   0.11424  -0.1628  0.1598  0.5741  -3.7328   0.0000   0.3057
   4.800   1.9996   0.11980   0.11467  -0.1614  0.1571  0.5752  -3.7947   0.0000   0.3043
   5.000   2.0077   0.12036   0.11524  -0.1600  0.1539  0.5764  -3.8567   0.0000   0.3028
   5.200   2.0150   0.12108   0.11597  -0.1586  0.1505  0.5778  -3.9176   0.0000   0.3013
   5.400   2.0235   0.12185   0.11674  -0.1574  0.1475  0.5797  -3.9836   0.0000   0.2999
   5.600   2.0378   0.12286   0.11777  -0.1570  0.1441  0.5835  -4.0651   0.0000   0.2987
   5.800   2.0560   0.12436   0.11925  -0.1571  0.1398  0.5884  -4.1582   0.0000   0.2975
   6.000   2.0601   0.12490   0.11980  -0.1555  0.1368  0.5889  -4.2196   0.0000   0.2961
   6.200   2.0655   0.12538   0.12032  -0.1539  0.1343  0.5894  -4.2851   0.0000   0.2947
   6.400   2.0696   0.12602   0.12099  -0.1523  0.1312  0.5899  -4.3476   0.0000   0.2933
   6.600   2.0731   0.12674   0.12171  -0.1508  0.1280  0.5904  -4.4090   0.0000   0.2919
   6.800   2.0771   0.12743   0.12242  -0.1493  0.1252  0.5909  -4.4715   0.0000   0.2905
   7.000   2.0818   0.12807   0.12309  -0.1478  0.1224  0.5915  -4.5366   0.0000   0.2891
   7.200   2.0848   0.12891   0.12396  -0.1464  0.1196  0.5920  -4.5998   0.0000   0.2878
   7.400   2.0872   0.12980   0.12486  -0.1450  0.1168  0.5926  -4.6632   0.0000   0.2865
   7.600   2.0908   0.13057   0.12567  -0.1436  0.1142  0.5932  -4.7304   0.0000   0.2852
   7.800   2.0934   0.13147   0.12660  -0.1423  0.1112  0.5939  -4.7946   0.0000   0.2839
   8.000   2.0947   0.13248   0.12762  -0.1410  0.1080  0.5946  -4.8553   0.0000   0.2827
   8.200   2.0959   0.13353   0.12870  -0.1398  0.1052  0.5954  -4.9155   0.0000   0.2815
   8.400   2.0980   0.13455   0.12975  -0.1387  0.1024  0.5964  -4.9789   0.0000   0.2803
   8.600   2.0988   0.13576   0.13098  -0.1377  0.0994  0.5974  -5.0382   0.0000   0.2792
   8.800   2.0996   0.13703   0.13228  -0.1368  0.0968  0.5986  -5.0978   0.0000   0.2781
   9.000   2.1023   0.13824   0.13353  -0.1360  0.0941  0.6000  -5.1634   0.0000   0.2770
   9.200   2.1046   0.13968   0.13500  -0.1355  0.0912  0.6019  -5.2281   0.0000   0.2761
   9.400   2.1194   0.14233   0.13764  -0.1369  0.0874  0.6092  -5.3369   0.0000   0.2755
   9.600   2.1185   0.14354   0.13890  -0.1361  0.0850  0.6095  -5.3906   0.0000   0.2745
   9.800   2.1160   0.14494   0.14034  -0.1354  0.0826  0.6099  -5.4385   0.0000   0.2736
  10.000   2.1140   0.14629   0.14172  -0.1348  0.0806  0.6103  -5.4879   0.0000   0.2727
  10.200   2.1120   0.14764   0.14312  -0.1343  0.0785  0.6106  -5.5374   0.0000   0.2718
  10.400   2.1094   0.14905   0.14457  -0.1339  0.0762  0.6110  -5.5845   0.0000   0.2710
  10.600   2.1043   0.15076   0.14632  -0.1338  0.0741  0.6114  -5.6239   0.0000   0.2704
  10.800   2.1022   0.15209   0.14771  -0.1335  0.0721  0.6118  -5.6761   0.0000   0.2696
  11.000   2.0980   0.15368   0.14935  -0.1335  0.0698  0.6122  -5.7199   0.0000   0.2690
  11.200   2.0923   0.15546   0.15116  -0.1337  0.0678  0.6126  -5.7574   0.0000   0.2685
  11.400   2.0887   0.15700   0.15276  -0.1338  0.0659  0.6131  -5.8023   0.0000   0.2679
  11.600   2.0837   0.15873   0.15453  -0.1342  0.0640  0.6136  -5.8414   0.0000   0.2674
  11.800   2.0784   0.16051   0.15636  -0.1347  0.0622  0.6141  -5.8783   0.0000   0.2670
  12.000   2.0728   0.16235   0.15826  -0.1354  0.0607  0.6146  -5.9136   0.0000   0.2667
  12.200   2.0685   0.16406   0.16003  -0.1360  0.0592  0.6151  -5.9533   0.0000   0.2664
  12.400   2.0637   0.16585   0.16187  -0.1369  0.0576  0.6157  -5.9927   0.0000   0.2661
  12.600   2.0568   0.16794   0.16402  -0.1381  0.0561  0.6163  -6.0233   0.0000   0.2661
  12.800   2.0516   0.16983   0.16597  -0.1392  0.0548  0.6170  -6.0610   0.0000   0.2659
  13.000   2.0468   0.17170   0.16790  -0.1403  0.0534  0.6177  -6.0999   0.0000   0.2658
  13.200   2.0407   0.17376   0.17002  -0.1418  0.0520  0.6185  -6.1320   0.0000   0.2658
  13.400   2.0345   0.17587   0.17218  -0.1433  0.0506  0.6194  -6.1623   0.0000   0.2659
  13.600   2.0284   0.17802   0.17439  -0.1450  0.0494  0.6204  -6.1922   0.0000   0.2660
  13.800   2.0238   0.18006   0.17648  -0.1467  0.0481  0.6216  -6.2286   0.0000   0.2661
  14.000   2.0182   0.18235   0.17882  -0.1487  0.0467  0.6231  -6.2590   0.0000   0.2664
  14.600   2.0068   0.18973   0.18636  -0.1561  0.0426  0.6305  -6.3679   0.0000   0.2675
  14.800   1.9996   0.19176   0.18844  -0.1580  0.0414  0.6308  -6.3883   0.0000   0.2678
  15.000   1.9912   0.19399   0.19073  -0.1602  0.0404  0.6311  -6.4005   0.0000   0.2682
  15.200   1.9860   0.19576   0.19255  -0.1618  0.0393  0.6314  -6.4300   0.0000   0.2683
  15.400   1.9786   0.19788   0.19473  -0.1639  0.0383  0.6317  -6.4456   0.0000   0.2688
  15.600   1.9721   0.19987   0.19676  -0.1659  0.0372  0.6320  -6.4662   0.0000   0.2691
  15.800   1.9642   0.20208   0.19901  -0.1683  0.0363  0.6323  -6.4774   0.0000   0.2696
  16.000   1.9599   0.20377   0.20076  -0.1700  0.0354  0.6326  -6.5086   0.0000   0.2697
  16.200   1.9549   0.20556   0.20259  -0.1719  0.0345  0.6329  -6.5356   0.0000   0.2699
  16.400   1.9483   0.20760   0.20468  -0.1742  0.0337  0.6333  -6.5513   0.0000   0.2704
  16.600   1.9427   0.20949   0.20660  -0.1763  0.0329  0.6337  -6.5727   0.0000   0.2707
  16.800   1.9373   0.21135   0.20852  -0.1784  0.0321  0.6341  -6.5940   0.0000   0.2710
  17.000   1.9332   0.21303   0.21025  -0.1803  0.0314  0.6345  -6.6230   0.0000   0.2712
  17.200   1.9295   0.21465   0.21190  -0.1821  0.0305  0.6350  -6.6539   0.0000   0.2714
  17.400   1.9234   0.21663   0.21393  -0.1845  0.0298  0.6355  -6.6684   0.0000   0.2719
  17.600   1.9181   0.21850   0.21584  -0.1868  0.0290  0.6360  -6.6871   0.0000   0.2723
  17.800   1.9155   0.21995   0.21733  -0.1885  0.0283  0.6366  -6.7237   0.0000   0.2723


