xflr5 v6.47

 Calculated polar for: NACA24018_theta30_Ku4.5_Kl0.5_d0.24_delta7.31

 1 1 Reynolds number fixed          Mach number fixed         

 xtrf =   1.000 (top)        1.000 (bottom)
 Mach =   0.000     Re =     0.400 e 6     Ncrit =   5.000

  alpha     CL        CD       CDp       Cm    Top Xtr Bot Xtr   Cpmin    Chinge    XCp    
 ------- -------- --------- --------- -------- ------- ------- -------- --------- ---------
 -15.000  -0.7913   0.04960   0.04426  -0.0836  0.9004  0.0422  -5.5373   0.0000   0.1195
 -14.800  -0.7808   0.04866   0.04328  -0.0839  0.8992  0.0427  -5.4472   0.0000   0.1181
 -14.600  -0.7664   0.04789   0.04247  -0.0846  0.8984  0.0432  -5.3436   0.0000   0.1153
 -14.400  -0.7491   0.04732   0.04185  -0.0856  0.8979  0.0438  -5.2308   0.0000   0.1115
 -14.000  -0.7315   0.04545   0.03988  -0.0847  0.8937  0.0448  -5.0635   0.0000   0.1106
 -13.200  -0.6394   0.04294   0.03732  -0.0906  0.8836  0.0479  -4.5485   0.0000   0.0844
 -13.000  -0.6118   0.04258   0.03691  -0.0925  0.8823  0.0489  -4.4126   0.0000   0.0747
 -12.600  -0.5598   0.04153   0.03584  -0.0958  0.8760  0.0506  -4.1520   0.0000   0.0541
 -12.400  -0.5314   0.04123   0.03554  -0.0977  0.8746  0.0516  -4.0152   0.0000   0.0410
 -12.200  -0.5018   0.04101   0.03530  -0.0996  0.8736  0.0529  -3.8770   0.0000   0.0257
 -12.000  -0.4714   0.04086   0.03511  -0.1016  0.8729  0.0542  -3.7389   0.0000   0.0080
 -11.800  -0.4474   0.04038   0.03464  -0.1028  0.8685  0.0553  -3.6193   0.0000  -0.0068
 -11.600  -0.4182   0.04017   0.03444  -0.1047  0.8668  0.0566  -3.4858   0.0000  -0.0283
 -11.400  -0.3878   0.04002   0.03428  -0.1066  0.8656  0.0581  -3.3566   0.0000  -0.0540
 -11.200  -0.3565   0.03992   0.03414  -0.1086  0.8647  0.0597  -3.2285   0.0000  -0.0850
 -11.000  -0.3226   0.03982   0.03408  -0.1111  0.8640  0.0614  -3.0936   0.0000  -0.1269
 -10.800  -0.2980   0.03957   0.03384  -0.1121  0.8602  0.0630  -2.9839   0.0000  -0.1602
 -10.600  -0.2686   0.03946   0.03371  -0.1138  0.8582  0.0650  -2.8646   0.0000  -0.2098
 -10.400  -0.2356   0.03937   0.03364  -0.1161  0.8569  0.0669  -2.7383   0.0000  -0.2824
 -10.200  -0.2020   0.03930   0.03358  -0.1184  0.8558  0.0691  -2.6170   0.0000  -0.3808
 -10.000  -0.1685   0.03925   0.03351  -0.1205  0.8550  0.0716  -2.4986   0.0000  -0.5165
  -9.800  -0.1395   0.03912   0.03343  -0.1222  0.8518  0.0740  -2.3910   0.0000  -0.6853
  -9.600  -0.1089   0.03899   0.03330  -0.1239  0.8488  0.0768  -2.2814   0.0000  -0.9607
  -9.400  -0.0730   0.03882   0.03315  -0.1265  0.8470  0.0801  -2.1620   0.0000  -1.5877
  -9.200  -0.0356   0.03866   0.03299  -0.1292  0.8457  0.0839  -2.0413   0.0000  -3.5828
  -9.000  -0.0092   0.03857   0.03293  -0.1303  0.8412  0.0871  -1.9490   0.0000  -14.7425
  -8.800   0.0228   0.03854   0.03293  -0.1322  0.8385  0.0912  -1.8481   0.0000   6.3365
  -8.000   0.1308   0.03909   0.03361  -0.1369  0.8162  0.1106  -1.5034   0.0000   1.3380
  -7.800   0.1428   0.04003   0.03461  -0.1360  0.7935  0.1150  -1.4482   0.0000   1.2379
  -7.600   0.1744   0.04025   0.03486  -0.1378  0.7864  0.1229  -1.3600   0.0000   1.0674
  -7.400   0.2113   0.04036   0.03502  -0.1404  0.7810  0.1333  -1.2643   0.0000   0.9353
  -7.200   0.2497   0.04046   0.03517  -0.1432  0.7745  0.1462  -1.1680   0.0000   0.8401
  -7.000   0.2935   0.04050   0.03528  -0.1469  0.7678  0.1648  -1.0674   0.0000   0.7637
  -6.800   0.3460   0.04047   0.03535  -0.1521  0.7598  0.1957  -0.9636   0.0000   0.6997
  -6.400   0.5629   0.04080   0.03622  -0.1821  0.7329  0.4117  -0.9146   0.0000   0.5783
  -6.200   0.6443   0.03880   0.03402  -0.1915  0.7000  0.4480  -0.9842   0.0000   0.5509
  -6.000   0.6899   0.03816   0.03311  -0.1952  0.6559  0.4669  -1.0276   0.0000   0.5359
  -5.800   0.7171   0.03855   0.03328  -0.1960  0.6184  0.4799  -1.0571   0.0000   0.5257
  -5.600   0.7380   0.03901   0.03359  -0.1958  0.5872  0.4889  -1.0820   0.0000   0.5171
  -5.400   0.7614   0.03960   0.03401  -0.1960  0.5602  0.4984  -1.1100   0.0000   0.5088
  -5.200   0.7820   0.04003   0.03435  -0.1957  0.5378  0.5074  -1.1362   0.0000   0.5012
  -5.000   0.8092   0.04070   0.03490  -0.1966  0.5154  0.5205  -1.1686   0.0000   0.4934
  -4.800   0.8313   0.04118   0.03531  -0.1966  0.4956  0.5335  -1.1976   0.0000   0.4864
  -4.600   0.8532   0.04163   0.03567  -0.1965  0.4771  0.5428  -1.2265   0.0000   0.4798
  -4.400   0.8719   0.04195   0.03591  -0.1959  0.4611  0.5485  -1.2530   0.0000   0.4738
  -4.200   0.8956   0.04241   0.03627  -0.1961  0.4459  0.5533  -1.2836   0.0000   0.4677
  -4.000   0.9220   0.04295   0.03671  -0.1968  0.4322  0.5578  -1.3165   0.0000   0.4618
  -3.800   0.9366   0.04306   0.03678  -0.1954  0.4213  0.5606  -1.3400   0.0000   0.4567
  -3.600   0.9532   0.04325   0.03692  -0.1944  0.4098  0.5641  -1.3652   0.0000   0.4516
  -3.400   0.9726   0.04352   0.03715  -0.1939  0.3994  0.5680  -1.3941   0.0000   0.4466
  -3.200   0.9957   0.04396   0.03751  -0.1940  0.3887  0.5722  -1.4264   0.0000   0.4418
  -3.000   1.0233   0.04453   0.03801  -0.1950  0.3792  0.5764  -1.4627   0.0000   0.4371
  -2.800   1.0379   0.04465   0.03809  -0.1936  0.3712  0.5789  -1.4880   0.0000   0.4328
  -2.600   1.0531   0.04477   0.03820  -0.1923  0.3643  0.5817  -1.5138   0.0000   0.4286
  -2.400   1.0701   0.04497   0.03837  -0.1913  0.3572  0.5850  -1.5415   0.0000   0.4244
  -2.000   1.1161   0.04583   0.03915  -0.1915  0.3445  0.5933  -1.6111   0.0000   0.4166
  -1.600   1.1030   0.04339   0.03702  -0.1735  0.3275  0.5942  -1.6056   0.0000   0.4012
  -1.400   1.1215   0.04390   0.03751  -0.1730  0.3223  0.5971  -1.6377   0.0000   0.3978
  -1.200   1.1321   0.04404   0.03765  -0.1710  0.3180  0.5994  -1.6622   0.0000   0.3944
  -1.000   1.1439   0.04428   0.03789  -0.1694  0.3142  0.6019  -1.6880   0.0000   0.3911
  -0.800   1.1596   0.04460   0.03823  -0.1683  0.3105  0.6049  -1.7182   0.0000   0.3879
  -0.600   1.1782   0.04514   0.03877  -0.1677  0.3060  0.6082  -1.7525   0.0000   0.3849
  -0.400   1.2001   0.04594   0.03954  -0.1678  0.3013  0.6119  -1.7903   0.0000   0.3821
  -0.200   1.2243   0.04697   0.04052  -0.1683  0.2968  0.6155  -1.8308   0.0000   0.3794
   0.000   1.2339   0.04701   0.04060  -0.1662  0.2939  0.6172  -1.8560   0.0000   0.3764
   0.200   1.3032   0.04873   0.04195  -0.1813  0.2946  0.6249  -1.9616   0.0000   0.3808
   0.400   1.3229   0.04915   0.04237  -0.1809  0.2906  0.6282  -1.9996   0.0000   0.3781
   0.600   1.3479   0.04982   0.04302  -0.1814  0.2862  0.6321  -2.0436   0.0000   0.3757
   0.800   1.3693   0.05042   0.04360  -0.1812  0.2823  0.6352  -2.0839   0.0000   0.3732
   1.000   1.3782   0.05051   0.04370  -0.1790  0.2796  0.6367  -2.1104   0.0000   0.3704
   1.200   1.3887   0.05058   0.04381  -0.1769  0.2770  0.6383  -2.1392   0.0000   0.3676
   1.400   1.4008   0.05075   0.04401  -0.1752  0.2739  0.6402  -2.1723   0.0000   0.3650
   1.600   1.4143   0.05102   0.04430  -0.1738  0.2706  0.6423  -2.2074   0.0000   0.3625
   1.800   1.4292   0.05141   0.04468  -0.1726  0.2672  0.6446  -2.2442   0.0000   0.3601
   2.000   1.4462   0.05195   0.04520  -0.1718  0.2640  0.6474  -2.2836   0.0000   0.3578
   2.200   1.4721   0.05272   0.04599  -0.1724  0.2608  0.6515  -2.3342   0.0000   0.3558
   2.400   1.4929   0.05331   0.04661  -0.1723  0.2573  0.6544  -2.3788   0.0000   0.3537
   2.600   1.5013   0.05345   0.04677  -0.1700  0.2544  0.6556  -2.4083   0.0000   0.3513
   2.800   1.5106   0.05368   0.04701  -0.1679  0.2516  0.6567  -2.4389   0.0000   0.3489
   3.000   1.5203   0.05401   0.04736  -0.1659  0.2489  0.6580  -2.4701   0.0000   0.3466
   3.200   1.5309   0.05435   0.04772  -0.1641  0.2465  0.6593  -2.5026   0.0000   0.3443
   3.400   1.5426   0.05468   0.04809  -0.1624  0.2437  0.6609  -2.5381   0.0000   0.3421
   3.600   1.5548   0.05508   0.04853  -0.1608  0.2406  0.6628  -2.5746   0.0000   0.3399
   3.800   1.5683   0.05562   0.04908  -0.1596  0.2374  0.6649  -2.6160   0.0000   0.3379
   4.000   1.5847   0.05638   0.04983  -0.1588  0.2342  0.6677  -2.6618   0.0000   0.3360
   4.200   1.6181   0.05785   0.05130  -0.1609  0.2307  0.6729  -2.7320   0.0000   0.3348
   4.400   1.6267   0.05811   0.05161  -0.1588  0.2285  0.6736  -2.7687   0.0000   0.3327
   4.600   1.6350   0.05842   0.05197  -0.1567  0.2261  0.6745  -2.8066   0.0000   0.3306
   4.800   1.6427   0.05881   0.05239  -0.1545  0.2235  0.6754  -2.8438   0.0000   0.3285
   5.000   1.6499   0.05930   0.05291  -0.1523  0.2209  0.6763  -2.8804   0.0000   0.3264
   5.200   1.6568   0.05990   0.05352  -0.1502  0.2183  0.6773  -2.9167   0.0000   0.3243
   5.400   1.6657   0.06041   0.05408  -0.1483  0.2159  0.6784  -2.9560   0.0000   0.3224
   5.600   1.6760   0.06093   0.05465  -0.1466  0.2131  0.6796  -3.0007   0.0000   0.3205
   5.800   1.6865   0.06156   0.05531  -0.1451  0.2102  0.6809  -3.0463   0.0000   0.3186
   6.000   1.6964   0.06232   0.05610  -0.1435  0.2072  0.6824  -3.0913   0.0000   0.3168
   6.200   1.7061   0.06326   0.05706  -0.1420  0.2045  0.6843  -3.1362   0.0000   0.3151
   6.400   1.7203   0.06430   0.05813  -0.1412  0.2018  0.6870  -3.1897   0.0000   0.3135
   6.600   1.7493   0.06590   0.05977  -0.1428  0.1979  0.6920  -3.2726   0.0000   0.3126
   6.800   1.7550   0.06654   0.06045  -0.1406  0.1951  0.6926  -3.3163   0.0000   0.3108
   7.000   1.7599   0.06734   0.06128  -0.1385  0.1925  0.6932  -3.3601   0.0000   0.3089
   7.200   1.7639   0.06827   0.06224  -0.1363  0.1901  0.6938  -3.4031   0.0000   0.3071
   7.400   1.7695   0.06903   0.06305  -0.1343  0.1879  0.6945  -3.4522   0.0000   0.3053
   7.600   1.7759   0.06976   0.06385  -0.1324  0.1854  0.6953  -3.5029   0.0000   0.3036
   7.800   1.7810   0.07066   0.06480  -0.1305  0.1826  0.6962  -3.5521   0.0000   0.3019
   8.000   1.7856   0.07168   0.06585  -0.1286  0.1798  0.6971  -3.6015   0.0000   0.3002
   8.200   1.7894   0.07286   0.06706  -0.1268  0.1772  0.6980  -3.6494   0.0000   0.2986
   8.400   1.7947   0.07399   0.06825  -0.1251  0.1749  0.6991  -3.7004   0.0000   0.2970
   8.600   1.8019   0.07505   0.06937  -0.1238  0.1723  0.7003  -3.7559   0.0000   0.2956
   8.800   1.8082   0.07633   0.07071  -0.1224  0.1693  0.7017  -3.8095   0.0000   0.2941
   9.000   1.8137   0.07785   0.07226  -0.1212  0.1662  0.7032  -3.8677   0.0000   0.2928
   9.200   1.8192   0.07964   0.07407  -0.1203  0.1633  0.7051  -3.9262   0.0000   0.2916
   9.400   1.8444   0.08195   0.07645  -0.1221  0.1591  0.7105  -4.0345   0.0000   0.2911
   9.600   1.8455   0.08325   0.07781  -0.1204  0.1564  0.7110  -4.0820   0.0000   0.2896
   9.800   1.8453   0.08477   0.07937  -0.1187  0.1538  0.7115  -4.1263   0.0000   0.2883
  10.000   1.8440   0.08646   0.08110  -0.1172  0.1514  0.7120  -4.1678   0.0000   0.2870
  10.200   1.8466   0.08776   0.08248  -0.1158  0.1489  0.7125  -4.2242   0.0000   0.2857
  10.400   1.8478   0.08929   0.08407  -0.1146  0.1461  0.7131  -4.2775   0.0000   0.2845
  10.600   1.8477   0.09101   0.08584  -0.1134  0.1434  0.7137  -4.3272   0.0000   0.2833
  10.800   1.8459   0.09298   0.08785  -0.1124  0.1409  0.7143  -4.3719   0.0000   0.2823
  11.000   1.8462   0.09472   0.08966  -0.1115  0.1386  0.7150  -4.4220   0.0000   0.2813
  11.200   1.8472   0.09639   0.09140  -0.1107  0.1360  0.7158  -4.4742   0.0000   0.2803
  11.400   1.8462   0.09834   0.09341  -0.1100  0.1334  0.7167  -4.5205   0.0000   0.2794
  11.600   1.8439   0.10051   0.09564  -0.1095  0.1309  0.7177  -4.5624   0.0000   0.2786
  11.800   1.8419   0.10273   0.09791  -0.1092  0.1286  0.7188  -4.6045   0.0000   0.2779
  12.200   1.8433   0.10691   0.10223  -0.1091  0.1233  0.7213  -4.7044   0.0000   0.2766
  12.400   1.8418   0.10952   0.10489  -0.1095  0.1206  0.7227  -4.7465   0.0000   0.2763
  12.600   1.8418   0.11221   0.10763  -0.1103  0.1179  0.7242  -4.7926   0.0000   0.2761
  12.800   1.8475   0.11497   0.11047  -0.1117  0.1146  0.7266  -4.8558   0.0000   0.2760
  13.000   1.8509   0.11827   0.11382  -0.1137  0.1113  0.7288  -4.9112   0.0000   0.2762
  13.200   1.8437   0.12102   0.11662  -0.1142  0.1091  0.7292  -4.9329   0.0000   0.2761
  13.400   1.8410   0.12311   0.11879  -0.1144  0.1069  0.7296  -4.9728   0.0000   0.2757
  13.600   1.8360   0.12551   0.12126  -0.1150  0.1045  0.7300  -5.0055   0.0000   0.2755
  13.800   1.8295   0.12816   0.12397  -0.1158  0.1023  0.7305  -5.0315   0.0000   0.2755
  14.200   1.8174   0.13338   0.12932  -0.1176  0.0982  0.7315  -5.0845   0.0000   0.2756
  14.400   1.8121   0.13596   0.13196  -0.1186  0.0961  0.7321  -5.1127   0.0000   0.2757
  14.600   1.8054   0.13880   0.13486  -0.1200  0.0939  0.7327  -5.1337   0.0000   0.2760
  14.800   1.7972   0.14190   0.13801  -0.1217  0.0919  0.7333  -5.1479   0.0000   0.2766
  15.000   1.7935   0.14439   0.14057  -0.1230  0.0898  0.7340  -5.1796   0.0000   0.2768
  15.200   1.7885   0.14716   0.14341  -0.1247  0.0875  0.7347  -5.2044   0.0000   0.2772
  15.400   1.7821   0.15018   0.14649  -0.1267  0.0853  0.7354  -5.2223   0.0000   0.2778
  15.600   1.7757   0.15325   0.14960  -0.1288  0.0833  0.7361  -5.2391   0.0000   0.2785
  15.800   1.7722   0.15595   0.15237  -0.1306  0.0811  0.7369  -5.2670   0.0000   0.2790
  16.000   1.7676   0.15885   0.15533  -0.1328  0.0790  0.7378  -5.2896   0.0000   0.2796
  16.200   1.7615   0.16206   0.15857  -0.1353  0.0770  0.7387  -5.3037   0.0000   0.2806
  16.400   1.7581   0.16495   0.16151  -0.1377  0.0751  0.7398  -5.3284   0.0000   0.2813
  16.600   1.7561   0.16773   0.16435  -0.1400  0.0730  0.7411  -5.3587   0.0000   0.2819
  16.800   1.7526   0.17096   0.16763  -0.1430  0.0709  0.7426  -5.3796   0.0000   0.2830
  17.000   1.7526   0.17441   0.17111  -0.1466  0.0689  0.7448  -5.4125   0.0000   0.2842
  17.200   1.7543   0.17744   0.17420  -0.1497  0.0668  0.7465  -5.4535   0.0000   0.2851
  17.400   1.7493   0.17996   0.17676  -0.1517  0.0651  0.7469  -5.4703   0.0000   0.2857
  17.600   1.7431   0.18273   0.17957  -0.1540  0.0635  0.7473  -5.4795   0.0000   0.2865
  17.800   1.7394   0.18511   0.18199  -0.1560  0.0621  0.7477  -5.5005   0.0000   0.2871
  18.000   1.7368   0.18731   0.18425  -0.1578  0.0605  0.7481  -5.5267   0.0000   0.2875
  18.200   1.7323   0.18988   0.18686  -0.1601  0.0589  0.7485  -5.5412   0.0000   0.2883
  18.400   1.7279   0.19242   0.18942  -0.1624  0.0575  0.7490  -5.5586   0.0000   0.2891
  18.600   1.7252   0.19469   0.19174  -0.1645  0.0561  0.7495  -5.5855   0.0000   0.2896
  18.800   1.7227   0.19698   0.19407  -0.1666  0.0546  0.7501  -5.6126   0.0000   0.2902
  19.000   1.7200   0.19931   0.19643  -0.1688  0.0531  0.7506  -5.6379   0.0000   0.2908
  19.200   1.7160   0.20190   0.19904  -0.1714  0.0518  0.7512  -5.6541   0.0000   0.2917
  19.400   1.7145   0.20407   0.20127  -0.1735  0.0504  0.7519  -5.6843   0.0000   0.2923
  19.600   1.7131   0.20621   0.20345  -0.1756  0.0490  0.7527  -5.7150   0.0000   0.2928
  19.800   1.7101   0.20867   0.20594  -0.1781  0.0477  0.7535  -5.7345   0.0000   0.2936
  20.000   1.7075   0.21108   0.20835  -0.1807  0.0465  0.7544  -5.7577   0.0000   0.2944
  20.200   1.7077   0.21306   0.21040  -0.1828  0.0453  0.7555  -5.7973   0.0000   0.2948
  20.400   1.7066   0.21535   0.21274  -0.1853  0.0440  0.7566  -5.8272   0.0000   0.2955
  20.600   1.7055   0.21776   0.21516  -0.1880  0.0428  0.7577  -5.8557   0.0000   0.2963
  20.800   1.7057   0.22009   0.21751  -0.1908  0.0418  0.7589  -5.8903   0.0000   0.2970
  21.000   1.7075   0.22235   0.21982  -0.1935  0.0406  0.7602  -5.9328   0.0000   0.2976
  21.200   1.7095   0.22497   0.22248  -0.1969  0.0394  0.7617  -5.9715   0.0000   0.2985
  21.400   1.7128   0.22763   0.22516  -0.2005  0.0383  0.7634  -6.0167   0.0000   0.2994
  21.600   1.7112   0.22955   0.22709  -0.2026  0.0374  0.7638  -6.0446   0.0000   0.2999
  21.800   1.7096   0.23148   0.22908  -0.2047  0.0365  0.7641  -6.0705   0.0000   0.3004
  22.000   1.7081   0.23338   0.23103  -0.2068  0.0356  0.7645  -6.0971   0.0000   0.3009
  22.200   1.7068   0.23525   0.23292  -0.2090  0.0347  0.7650  -6.1251   0.0000   0.3014
  22.400   1.7053   0.23713   0.23480  -0.2112  0.0340  0.7654  -6.1519   0.0000   0.3018
  22.600   1.7040   0.23897   0.23668  -0.2133  0.0332  0.7660  -6.1779   0.0000   0.3023
  22.800   1.7031   0.24073   0.23849  -0.2154  0.0324  0.7666  -6.2061   0.0000   0.3027
  23.000   1.7021   0.24249   0.24030  -0.2175  0.0317  0.7672  -6.2342   0.0000   0.3031
  23.200   1.7011   0.24430   0.24213  -0.2197  0.0310  0.7679  -6.2610   0.0000   0.3035
  23.400   1.7001   0.24612   0.24396  -0.2219  0.0303  0.7687  -6.2876   0.0000   0.3040
  23.600   1.6998   0.24785   0.24572  -0.2241  0.0296  0.7695  -6.3178   0.0000   0.3044
  23.800   1.6994   0.24969   0.24762  -0.2264  0.0289  0.7702  -6.3439   0.0000   0.3049
  24.000   1.6987   0.25163   0.24960  -0.2290  0.0282  0.7710  -6.3668   0.0000   0.3054
  24.200   1.6983   0.25357   0.25156  -0.2316  0.0275  0.7718  -6.3951   0.0000   0.3060
  24.400   1.6991   0.25528   0.25327  -0.2339  0.0269  0.7727  -6.4364   0.0000   0.3064
  24.600   1.6997   0.25712   0.25514  -0.2364  0.0262  0.7736  -6.4718   0.0000   0.3068
  24.800   1.6992   0.25924   0.25733  -0.2394  0.0255  0.7745  -6.4941   0.0000   0.3076
  25.000   1.6993   0.26132   0.25945  -0.2423  0.0249  0.7755  -6.5202   0.0000   0.3083


