xflr5 v6.47

 Calculated polar for: NACA24018_theta30_Ku4.5_Kl0.5_d0.14_delta3.44

 1 1 Reynolds number fixed          Mach number fixed         

 xtrf =   1.000 (top)        1.000 (bottom)
 Mach =   0.000     Re =     3.200 e 6     Ncrit =   5.000

  alpha     CL        CD       CDp       Cm    Top Xtr Bot Xtr   Cpmin    Chinge    XCp    
 ------- -------- --------- --------- -------- ------- ------- -------- --------- ---------
 -15.000  -1.0231   0.02270   0.01828  -0.0902  0.9288  0.0238  -6.7637   0.0000   0.1391
 -14.800  -1.0100   0.02217   0.01773  -0.0894  0.9282  0.0241  -6.6413   0.0000   0.1390
 -14.600  -0.9884   0.02167   0.01722  -0.0901  0.9278  0.0245  -6.4879   0.0000   0.1366
 -14.400  -0.9630   0.02117   0.01673  -0.0913  0.9274  0.0249  -6.3224   0.0000   0.1331
 -14.200  -0.9343   0.02069   0.01625  -0.0930  0.9270  0.0254  -6.1464   0.0000   0.1284
 -14.000  -0.9336   0.02016   0.01571  -0.0898  0.9232  0.0256  -6.0709   0.0000   0.1323
 -13.800  -0.9100   0.01970   0.01525  -0.0905  0.9220  0.0259  -5.9192   0.0000   0.1291
 -13.600  -0.8842   0.01927   0.01481  -0.0916  0.9213  0.0263  -5.7627   0.0000   0.1251
 -13.400  -0.8575   0.01886   0.01441  -0.0929  0.9207  0.0266  -5.6053   0.0000   0.1205
 -13.200  -0.8311   0.01849   0.01403  -0.0940  0.9204  0.0269  -5.4503   0.0000   0.1157
 -13.000  -0.8045   0.01810   0.01365  -0.0952  0.9201  0.0275  -5.2971   0.0000   0.1105
 -12.800  -0.7777   0.01774   0.01329  -0.0965  0.9198  0.0280  -5.1445   0.0000   0.1049
 -12.600  -0.7502   0.01738   0.01294  -0.0978  0.9196  0.0285  -4.9957   0.0000   0.0985
 -12.000  -0.6939   0.01674   0.01231  -0.0968  0.9154  0.0297  -4.6394   0.0000   0.0896
 -11.800  -0.6706   0.01651   0.01209  -0.0973  0.9142  0.0301  -4.5097   0.0000   0.0841
 -10.800  -0.5801   0.01615   0.01177  -0.0947  0.8798  0.0329  -3.9522   0.0000   0.0661
 -10.600  -0.5282   0.01530   0.01091  -0.1001  0.8732  0.0337  -3.7519   0.0000   0.0389
 -10.400  -0.4471   0.01368   0.00919  -0.1112  0.8500  0.0355  -3.4806   0.0000  -0.0225
 -10.200  -0.4326   0.01355   0.00880  -0.1099  0.7822  0.0362  -3.3866   0.0000  -0.0278
 -10.000  -0.4162   0.01356   0.00868  -0.1089  0.7453  0.0368  -3.2883   0.0000  -0.0357
  -9.800  -0.3949   0.01352   0.00856  -0.1089  0.7209  0.0375  -3.1788   0.0000  -0.0502
  -9.600  -0.3717   0.01345   0.00844  -0.1092  0.7027  0.0384  -3.0671   0.0000  -0.0689
  -9.400  -0.3477   0.01338   0.00832  -0.1097  0.6845  0.0396  -2.9584   0.0000  -0.0914
  -9.200  -0.3236   0.01331   0.00819  -0.1102  0.6645  0.0406  -2.8508   0.0000  -0.1173
  -9.000  -0.2991   0.01325   0.00807  -0.1107  0.6438  0.0415  -2.7440   0.0000  -0.1479
  -8.800  -0.2740   0.01319   0.00795  -0.1114  0.6249  0.0424  -2.6370   0.0000  -0.1857
  -8.600  -0.2479   0.01312   0.00783  -0.1122  0.6084  0.0438  -2.5339   0.0000  -0.2338
  -8.400  -0.2217   0.01305   0.00772  -0.1131  0.5910  0.0452  -2.4317   0.0000  -0.2935
  -8.200  -0.1952   0.01299   0.00760  -0.1140  0.5731  0.0464  -2.3306   0.0000  -0.3701
  -8.000  -0.1679   0.01291   0.00748  -0.1150  0.5556  0.0481  -2.2293   0.0000  -0.4755
  -7.800  -0.1410   0.01286   0.00739  -0.1160  0.5398  0.0498  -2.1301   0.0000  -0.6190
  -7.600  -0.1148   0.01283   0.00731  -0.1168  0.5236  0.0511  -2.0337   0.0000  -0.8223
  -7.400  -0.0883   0.01280   0.00723  -0.1177  0.5074  0.0530  -1.9383   0.0000  -1.1508
  -7.200  -0.0616   0.01277   0.00718  -0.1186  0.4938  0.0553  -1.8473   0.0000  -1.7701
  -7.000  -0.0353   0.01276   0.00713  -0.1194  0.4814  0.0570  -1.7592   0.0000  -3.2860
  -6.800  -0.0084   0.01275   0.00709  -0.1204  0.4688  0.0596  -1.6714   0.0000  -14.6750
  -6.600   0.0182   0.01274   0.00706  -0.1212  0.4578  0.0620  -1.5853   0.0000   7.1922
  -6.400   0.0448   0.01274   0.00703  -0.1221  0.4452  0.0647  -1.5007   0.0000   3.0787
  -6.200   0.0715   0.01275   0.00699  -0.1230  0.4294  0.0675  -1.4211   0.0000   2.0327
  -6.000   0.0979   0.01277   0.00696  -0.1238  0.4134  0.0700  -1.3433   0.0000   1.5589
  -5.800   0.1248   0.01278   0.00694  -0.1248  0.3998  0.0737  -1.2676   0.0000   1.2817
  -5.600   0.1512   0.01280   0.00694  -0.1256  0.3906  0.0766  -1.1956   0.0000   1.1054
  -5.200   0.2059   0.01283   0.00696  -0.1276  0.3730  0.0875  -1.0522   0.0000   0.8858
  -4.800   0.2597   0.01289   0.00699  -0.1294  0.3572  0.0974  -0.9146   0.0000   0.7592
  -4.600   0.2864   0.01293   0.00701  -0.1302  0.3492  0.1025  -0.8511   0.0000   0.7139
  -4.400   0.3142   0.01296   0.00705  -0.1313  0.3428  0.1111  -0.8254   0.0000   0.6756
  -4.200   0.3420   0.01300   0.00709  -0.1324  0.3340  0.1203  -0.8526   0.0000   0.6434
  -4.000   0.3703   0.01304   0.00714  -0.1336  0.3264  0.1318  -0.8804   0.0000   0.6160
  -3.800   0.3991   0.01309   0.00720  -0.1349  0.3192  0.1462  -0.9086   0.0000   0.5922
  -3.600   0.4281   0.01314   0.00726  -0.1362  0.3129  0.1618  -0.9376   0.0000   0.5715
  -3.400   0.4574   0.01318   0.00735  -0.1376  0.3093  0.1789  -0.9692   0.0000   0.5534
  -3.200   0.4899   0.01323   0.00746  -0.1397  0.3045  0.2084  -1.0032   0.0000   0.5370
  -3.000   0.5318   0.01330   0.00766  -0.1437  0.2982  0.2699  -1.0441   0.0000   0.5214
  -2.800   0.5702   0.01339   0.00787  -0.1470  0.2951  0.3190  -1.0831   0.0000   0.5084
  -2.600   0.6052   0.01349   0.00806  -0.1495  0.2908  0.3567  -1.1198   0.0000   0.4972
  -2.400   0.6395   0.01362   0.00824  -0.1519  0.2848  0.3913  -1.1564   0.0000   0.4872
  -2.200   0.6738   0.01375   0.00844  -0.1543  0.2805  0.4239  -1.1932   0.0000   0.4783
  -2.000   0.7041   0.01387   0.00859  -0.1559  0.2771  0.4442  -1.2272   0.0000   0.4702
  -1.800   0.7345   0.01401   0.00875  -0.1574  0.2726  0.4639  -1.2624   0.0000   0.4628
  -1.600   0.7640   0.01415   0.00890  -0.1588  0.2676  0.4814  -1.2977   0.0000   0.4560
  -1.400   0.7947   0.01429   0.00907  -0.1604  0.2653  0.5010  -1.3359   0.0000   0.4496
  -1.200   0.8258   0.01444   0.00926  -0.1621  0.2630  0.5215  -1.3747   0.0000   0.4437
  -1.000   0.8524   0.01457   0.00939  -0.1628  0.2597  0.5317  -1.4100   0.0000   0.4382
  -0.800   0.8783   0.01470   0.00951  -0.1635  0.2554  0.5379  -1.4450   0.0000   0.4329
  -0.600   0.9031   0.01483   0.00962  -0.1639  0.2512  0.5434  -1.4792   0.0000   0.4280
  -0.400   0.9277   0.01495   0.00974  -0.1642  0.2494  0.5483  -1.5136   0.0000   0.4233
  -0.200   0.9539   0.01508   0.00987  -0.1649  0.2470  0.5548  -1.5510   0.0000   0.4188
   0.000   0.9785   0.01521   0.01000  -0.1653  0.2437  0.5603  -1.5873   0.0000   0.4145
   0.200   1.0022   0.01535   0.01011  -0.1655  0.2395  0.5648  -1.6229   0.0000   0.4105
   0.400   1.0283   0.01550   0.01026  -0.1661  0.2361  0.5715  -1.6608   0.0000   0.4066
   0.600   1.0529   0.01564   0.01039  -0.1665  0.2338  0.5771  -1.6977   0.0000   0.4029
   0.800   1.0763   0.01577   0.01051  -0.1666  0.2308  0.5812  -1.7336   0.0000   0.3993
   1.000   1.1010   0.01593   0.01066  -0.1670  0.2273  0.5862  -1.7724   0.0000   0.3959
   1.200   1.1255   0.01609   0.01081  -0.1674  0.2237  0.5916  -1.8132   0.0000   0.3927
   1.400   1.1492   0.01624   0.01095  -0.1676  0.2218  0.5962  -1.8534   0.0000   0.3895
   1.600   1.1725   0.01638   0.01110  -0.1676  0.2200  0.6002  -1.8934   0.0000   0.3864
   1.800   1.1979   0.01656   0.01128  -0.1682  0.2170  0.6065  -1.9359   0.0000   0.3835
   2.000   1.2219   0.01674   0.01144  -0.1684  0.2134  0.6126  -1.9770   0.0000   0.3807
   2.200   1.2448   0.01692   0.01161  -0.1685  0.2096  0.6177  -2.0173   0.0000   0.3779
   2.400   1.2705   0.01711   0.01181  -0.1691  0.2076  0.6245  -2.0622   0.0000   0.3754
   2.600   1.2942   0.01729   0.01198  -0.1692  0.2053  0.6299  -2.1056   0.0000   0.3728
   2.800   1.3164   0.01746   0.01215  -0.1691  0.2023  0.6339  -2.1477   0.0000   0.3702
   3.000   1.3397   0.01767   0.01235  -0.1693  0.1989  0.6382  -2.1912   0.0000   0.3678
   3.200   1.3633   0.01789   0.01255  -0.1694  0.1953  0.6432  -2.2363   0.0000   0.3655
   3.400   1.3863   0.01807   0.01274  -0.1695  0.1938  0.6481  -2.2818   0.0000   0.3631
   3.600   1.4081   0.01825   0.01292  -0.1693  0.1915  0.6524  -2.3264   0.0000   0.3608
   3.800   1.4326   0.01849   0.01316  -0.1697  0.1882  0.6586  -2.3769   0.0000   0.3587
   4.000   1.4552   0.01874   0.01339  -0.1697  0.1845  0.6641  -2.4267   0.0000   0.3566
   4.200   1.4767   0.01895   0.01360  -0.1695  0.1819  0.6683  -2.4756   0.0000   0.3545
   4.400   1.4989   0.01917   0.01383  -0.1694  0.1799  0.6725  -2.5256   0.0000   0.3524
   4.600   1.5218   0.01944   0.01409  -0.1694  0.1765  0.6776  -2.5767   0.0000   0.3504
   4.800   1.5425   0.01974   0.01436  -0.1691  0.1721  0.6821  -2.6254   0.0000   0.3484
   5.000   1.5627   0.01999   0.01461  -0.1686  0.1692  0.6857  -2.6737   0.0000   0.3464
   5.200   1.5828   0.02023   0.01486  -0.1681  0.1671  0.6885  -2.7222   0.0000   0.3444
   5.400   1.6047   0.02052   0.01515  -0.1680  0.1647  0.6926  -2.7794   0.0000   0.3426
   5.600   1.6254   0.02083   0.01545  -0.1677  0.1617  0.6969  -2.8357   0.0000   0.3407
   5.800   1.6451   0.02114   0.01575  -0.1671  0.1581  0.7012  -2.8907   0.0000   0.3388
   6.000   1.6645   0.02140   0.01602  -0.1665  0.1559  0.7047  -2.9459   0.0000   0.3370
   6.200   1.6848   0.02174   0.01634  -0.1661  0.1520  0.7087  -3.0025   0.0000   0.3352
   6.400   1.7042   0.02213   0.01671  -0.1656  0.1473  0.7127  -3.0582   0.0000   0.3334
   6.600   1.7240   0.02244   0.01702  -0.1651  0.1450  0.7166  -3.1147   0.0000   0.3317
   6.800   1.7426   0.02276   0.01734  -0.1644  0.1422  0.7199  -3.1728   0.0000   0.3299
   7.000   1.7595   0.02315   0.01771  -0.1634  0.1380  0.7225  -3.2344   0.0000   0.3281
   7.200   1.7783   0.02353   0.01808  -0.1627  0.1345  0.7257  -3.2996   0.0000   0.3264
   7.400   1.7972   0.02391   0.01847  -0.1621  0.1313  0.7294  -3.3657   0.0000   0.3248
   7.600   1.8138   0.02438   0.01891  -0.1611  0.1271  0.7327  -3.4280   0.0000   0.3231
   7.800   1.8300   0.02481   0.01934  -0.1600  0.1239  0.7357  -3.4953   0.0000   0.3213
   8.000   1.8460   0.02521   0.01975  -0.1589  0.1217  0.7382  -3.5648   0.0000   0.3196
   8.200   1.8609   0.02568   0.02021  -0.1575  0.1185  0.7402  -3.6323   0.0000   0.3179
   8.400   1.8762   0.02621   0.02073  -0.1564  0.1144  0.7430  -3.7013   0.0000   0.3162
   8.600   1.8923   0.02671   0.02122  -0.1553  0.1108  0.7461  -3.7740   0.0000   0.3145
   8.800   1.9060   0.02732   0.02181  -0.1539  0.1061  0.7489  -3.8482   0.0000   0.3128
   9.000   1.9216   0.02779   0.02229  -0.1528  0.1039  0.7517  -3.9269   0.0000   0.3112
   9.200   1.9352   0.02835   0.02285  -0.1513  0.1010  0.7542  -4.0018   0.0000   0.3095
   9.400   1.9461   0.02906   0.02355  -0.1495  0.0969  0.7562  -4.0740   0.0000   0.3078
   9.600   1.9592   0.02964   0.02413  -0.1480  0.0942  0.7578  -4.1540   0.0000   0.3061
   9.800   1.9714   0.03034   0.02482  -0.1464  0.0905  0.7603  -4.2327   0.0000   0.3045
  10.000   1.9841   0.03101   0.02549  -0.1450  0.0875  0.7628  -4.3130   0.0000   0.3029
  10.200   1.9962   0.03169   0.02619  -0.1434  0.0853  0.7652  -4.3939   0.0000   0.3012
  10.400   2.0056   0.03253   0.02702  -0.1415  0.0821  0.7675  -4.4703   0.0000   0.2996
  10.600   2.0163   0.03330   0.02779  -0.1398  0.0794  0.7697  -4.5500   0.0000   0.2979
  10.800   2.0270   0.03407   0.02857  -0.1381  0.0766  0.7716  -4.6301   0.0000   0.2963
  11.000   2.0338   0.03509   0.02959  -0.1359  0.0734  0.7732  -4.7013   0.0000   0.2946
  11.200   2.0434   0.03595   0.03045  -0.1342  0.0711  0.7746  -4.7822   0.0000   0.2930
  11.400   2.0510   0.03695   0.03146  -0.1322  0.0683  0.7759  -4.8625   0.0000   0.2914
  11.600   2.0576   0.03806   0.03258  -0.1302  0.0657  0.7780  -4.9418   0.0000   0.2898
  11.800   2.0663   0.03903   0.03358  -0.1285  0.0637  0.7801  -5.0272   0.0000   0.2883
  12.000   2.0714   0.04027   0.03482  -0.1264  0.0613  0.7819  -5.1031   0.0000   0.2867
  12.200   2.0775   0.04145   0.03603  -0.1245  0.0594  0.7837  -5.1820   0.0000   0.2851
  12.400   2.0839   0.04264   0.03724  -0.1227  0.0576  0.7856  -5.2621   0.0000   0.2836
  12.600   2.0870   0.04413   0.03874  -0.1207  0.0552  0.7872  -5.3330   0.0000   0.2821
  12.800   2.0908   0.04559   0.04023  -0.1188  0.0533  0.7887  -5.4061   0.0000   0.2807
  13.000   2.0949   0.04707   0.04173  -0.1171  0.0516  0.7900  -5.4805   0.0000   0.2793
  13.200   2.0972   0.04874   0.04342  -0.1153  0.0499  0.7910  -5.5494   0.0000   0.2779
  13.400   2.1001   0.05040   0.04511  -0.1137  0.0485  0.7920  -5.6200   0.0000   0.2765
  13.600   2.1032   0.05205   0.04680  -0.1122  0.0474  0.7934  -5.6917   0.0000   0.2753
  13.800   2.1049   0.05388   0.04866  -0.1107  0.0461  0.7950  -5.7605   0.0000   0.2740
  14.000   2.1045   0.05594   0.05076  -0.1092  0.0448  0.7965  -5.8236   0.0000   0.2728
  14.200   2.1045   0.05801   0.05287  -0.1079  0.0436  0.7978  -5.8877   0.0000   0.2716
  14.400   2.1054   0.06002   0.05493  -0.1067  0.0426  0.7991  -5.9547   0.0000   0.2706
  14.600   2.1041   0.06230   0.05725  -0.1056  0.0414  0.8002  -6.0147   0.0000   0.2695
  14.800   2.1002   0.06492   0.05992  -0.1045  0.0401  0.8013  -6.0657   0.0000   0.2686
  15.000   2.0968   0.06755   0.06260  -0.1037  0.0391  0.8024  -6.1178   0.0000   0.2677
  15.200   2.0945   0.07011   0.06521  -0.1030  0.0382  0.8035  -6.1731   0.0000   0.2669
  15.400   2.0904   0.07291   0.06806  -0.1024  0.0373  0.8045  -6.2221   0.0000   0.2661
  15.600   2.0842   0.07601   0.07122  -0.1020  0.0363  0.8054  -6.2634   0.0000   0.2655
  15.800   2.0763   0.07939   0.07465  -0.1018  0.0354  0.8061  -6.2978   0.0000   0.2650
  16.000   2.0703   0.08259   0.07791  -0.1018  0.0347  0.8068  -6.3440   0.0000   0.2645
  16.200   2.0639   0.08589   0.08128  -0.1019  0.0341  0.8074  -6.3877   0.0000   0.2641
  16.400   2.0560   0.08941   0.08486  -0.1022  0.0334  0.8079  -6.4253   0.0000   0.2638
  16.600   2.0465   0.09317   0.08869  -0.1027  0.0327  0.8083  -6.4553   0.0000   0.2637
  16.800   2.0354   0.09716   0.09274  -0.1035  0.0319  0.8087  -6.4777   0.0000   0.2637
  17.000   2.0247   0.10109   0.09674  -0.1043  0.0312  0.8094  -6.5002   0.0000   0.2638
  17.200   2.0155   0.10484   0.10056  -0.1053  0.0308  0.8103  -6.5274   0.0000   0.2638
  17.400   2.0053   0.10874   0.10454  -0.1064  0.0302  0.8112  -6.5492   0.0000   0.2640
  17.600   1.9941   0.11282   0.10869  -0.1078  0.0296  0.8120  -6.5651   0.0000   0.2644
  17.800   1.9818   0.11707   0.11301  -0.1095  0.0291  0.8127  -6.5745   0.0000   0.2649
  18.000   1.9683   0.12148   0.11749  -0.1113  0.0285  0.8134  -6.5769   0.0000   0.2655
  18.200   1.9552   0.12585   0.12194  -0.1133  0.0279  0.8140  -6.5791   0.0000   0.2662
  18.400   1.9458   0.12968   0.12584  -0.1151  0.0275  0.8147  -6.5964   0.0000   0.2668
  18.600   1.9354   0.13369   0.12991  -0.1172  0.0271  0.8155  -6.6075   0.0000   0.2674
  18.800   1.9245   0.13779   0.13408  -0.1195  0.0266  0.8162  -6.6143   0.0000   0.2683
  19.000   1.9133   0.14194   0.13829  -0.1219  0.0261  0.8170  -6.6182   0.0000   0.2692
  19.200   1.9024   0.14605   0.14247  -0.1244  0.0256  0.8178  -6.6219   0.0000   0.2702
  19.400   1.8934   0.14986   0.14633  -0.1268  0.0251  0.8186  -6.6333   0.0000   0.2710
  19.600   1.8827   0.15397   0.15051  -0.1295  0.0246  0.8193  -6.6340   0.0000   0.2721
  19.800   1.8742   0.15773   0.15432  -0.1321  0.0243  0.8201  -6.6449   0.0000   0.2731
  20.000   1.8693   0.16092   0.15756  -0.1342  0.0240  0.8208  -6.6730   0.0000   0.2738
  20.200   1.8604   0.16478   0.16148  -0.1371  0.0236  0.8214  -6.6786   0.0000   0.2749
  20.400   1.8561   0.16787   0.16462  -0.1393  0.0232  0.8220  -6.7081   0.0000   0.2756
  20.600   1.8471   0.17178   0.16858  -0.1423  0.0228  0.8226  -6.7100   0.0000   0.2768
  20.800   1.8426   0.17491   0.17175  -0.1448  0.0223  0.8231  -6.7360   0.0000   0.2776
  21.000   1.8337   0.17882   0.17570  -0.1479  0.0219  0.8236  -6.7355   0.0000   0.2790
  21.200   1.8314   0.18160   0.17852  -0.1502  0.0215  0.8241  -6.7718   0.0000   0.2796
  21.400   1.8248   0.18514   0.18211  -0.1532  0.0213  0.8246  -6.7817   0.0000   0.2808
  21.600   1.8226   0.18779   0.18480  -0.1554  0.0209  0.8254  -6.8179   0.0000   0.2813
  21.800   1.8179   0.19083   0.18789  -0.1579  0.0206  0.8264  -6.8384   0.0000   0.2822
  22.000   1.8127   0.19395   0.19106  -0.1606  0.0202  0.8273  -6.8548   0.0000   0.2832
  22.200   1.8101   0.19661   0.19375  -0.1629  0.0198  0.8281  -6.8867   0.0000   0.2839
  22.400   1.8028   0.20013   0.19731  -0.1661  0.0195  0.8289  -6.8871   0.0000   0.2852
  22.600   1.7999   0.20284   0.20006  -0.1685  0.0190  0.8296  -6.9149   0.0000   0.2860
  22.800   1.7991   0.20520   0.20245  -0.1707  0.0188  0.8303  -6.9563   0.0000   0.2865
  23.000   1.7934   0.20843   0.20574  -0.1737  0.0186  0.8310  -6.9657   0.0000   0.2877
  23.200   1.7925   0.21078   0.20812  -0.1759  0.0183  0.8317  -7.0070   0.0000   0.2882
  23.400   1.7917   0.21311   0.21047  -0.1782  0.0179  0.8325  -7.0483   0.0000   0.2887
  23.600   1.7855   0.21644   0.21385  -0.1814  0.0176  0.8332  -7.0506   0.0000   0.2901
  23.800   1.7841   0.21886   0.21630  -0.1839  0.0173  0.8341  -7.0863   0.0000   0.2907
  24.000   1.7826   0.22133   0.21879  -0.1863  0.0169  0.8349  -7.1198   0.0000   0.2914
  24.200   1.7762   0.22472   0.22223  -0.1898  0.0166  0.8355  -7.1169   0.0000   0.2930
  24.400   1.7766   0.22683   0.22437  -0.1920  0.0163  0.8363  -7.1629   0.0000   0.2934
  24.600   1.7768   0.22898   0.22654  -0.1943  0.0161  0.8369  -7.2072   0.0000   0.2938
  24.800   1.7719   0.23210   0.22970  -0.1976  0.0158  0.8375  -7.2132   0.0000   0.2952
  25.000   1.7713   0.23440   0.23203  -0.2001  0.0155  0.8380  -7.2546   0.0000   0.2958


