xflr5 v6.47

 Calculated polar for: NACA24018_theta30_Ku4.5_Kl0.5_d0.28_delta9.02

 1 1 Reynolds number fixed          Mach number fixed         

 xtrf =   1.000 (top)        1.000 (bottom)
 Mach =   0.000     Re =     2.000 e 6     Ncrit =   5.000

  alpha     CL        CD       CDp       Cm    Top Xtr Bot Xtr   Cpmin    Chinge    XCp    
 ------- -------- --------- --------- -------- ------- ------- -------- --------- ---------
 -15.000  -0.4202   0.03796   0.03403  -0.1461  0.8241  0.0368  -4.4595   0.0000  -0.1374
 -14.800  -0.3935   0.03810   0.03417  -0.1475  0.8241  0.0372  -4.3237   0.0000  -0.1659
 -14.600  -0.3656   0.03828   0.03436  -0.1491  0.8240  0.0381  -4.1863   0.0000  -0.2007
 -14.400  -0.3385   0.03848   0.03458  -0.1505  0.8240  0.0389  -4.0519   0.0000  -0.2398
 -14.200  -0.3118   0.03872   0.03483  -0.1518  0.8240  0.0396  -3.9204   0.0000  -0.2844
 -14.000  -0.2855   0.03899   0.03510  -0.1530  0.8240  0.0404  -3.7913   0.0000  -0.3364
 -13.800  -0.2578   0.03919   0.03531  -0.1543  0.8240  0.0410  -3.6598   0.0000  -0.4029
 -13.600  -0.2298   0.03942   0.03554  -0.1557  0.8239  0.0417  -3.5292   0.0000  -0.4867
 -13.400  -0.2006   0.03968   0.03583  -0.1574  0.8239  0.0430  -3.3968   0.0000  -0.6004
 -13.200  -0.1678   0.03975   0.03591  -0.1595  0.8238  0.0443  -3.2565   0.0000  -0.7763
 -13.000  -0.1317   0.03960   0.03577  -0.1620  0.8236  0.0455  -3.1095   0.0000  -1.0732
 -12.800  -0.0906   0.03921   0.03538  -0.1652  0.8233  0.0468  -2.9525   0.0000  -1.7050
  -9.600   0.3404   0.04504   0.04152  -0.1822  0.7609  0.0782  -1.3598   0.0000   0.8039
  -9.200   0.4715   0.04123   0.03702  -0.1953  0.6418  0.0908  -1.0790   0.0000   0.6764
  -9.000   0.4859   0.04231   0.03794  -0.1944  0.6008  0.0946  -1.0246   0.0000   0.6611
  -8.800   0.5059   0.04302   0.03852  -0.1943  0.5710  0.0981  -0.9653   0.0000   0.6439
  -8.600   0.5295   0.04368   0.03909  -0.1948  0.5425  0.1040  -0.9431   0.0000   0.6267
  -8.400   0.5541   0.04426   0.03957  -0.1954  0.5174  0.1100  -0.9440   0.0000   0.6105
  -8.200   0.5794   0.04479   0.04003  -0.1961  0.4952  0.1163  -0.9465   0.0000   0.5954
  -8.000   0.6066   0.04535   0.04054  -0.1971  0.4757  0.1247  -0.9510   0.0000   0.5810
  -7.800   0.6340   0.04592   0.04105  -0.1982  0.4559  0.1340  -0.9558   0.0000   0.5678
  -7.600   0.6622   0.04650   0.04158  -0.1993  0.4372  0.1451  -0.9614   0.0000   0.5555
  -7.400   0.6920   0.04714   0.04217  -0.2008  0.4217  0.1591  -0.9784   0.0000   0.5440
  -7.200   0.7240   0.04785   0.04287  -0.2026  0.4075  0.1776  -1.0111   0.0000   0.5330
  -7.000   0.7560   0.04857   0.04359  -0.2044  0.3947  0.1973  -1.0442   0.0000   0.5229
  -6.800   0.7932   0.04951   0.04454  -0.2071  0.3819  0.2293  -1.0814   0.0000   0.5131
  -6.600   0.8408   0.05092   0.04601  -0.2116  0.3672  0.2850  -1.1267   0.0000   0.5031
  -6.200   0.9249   0.05338   0.04852  -0.2186  0.3448  0.3671  -1.2138   0.0000   0.4867
  -6.000   0.9564   0.05418   0.04930  -0.2202  0.3347  0.3883  -1.2500   0.0000   0.4801
  -5.800   0.9830   0.05475   0.04986  -0.2209  0.3282  0.3994  -1.2836   0.0000   0.4742
  -5.600   1.0097   0.05535   0.05044  -0.2217  0.3208  0.4133  -1.3175   0.0000   0.4686
  -5.400   1.0385   0.05605   0.05113  -0.2228  0.3154  0.4265  -1.3534   0.0000   0.4632
  -5.200   1.0628   0.05654   0.05161  -0.2231  0.3107  0.4341  -1.3857   0.0000   0.4583
  -5.000   1.0894   0.05716   0.05220  -0.2238  0.3045  0.4444  -1.4215   0.0000   0.4534
  -4.800   1.1181   0.05789   0.05292  -0.2249  0.2988  0.4578  -1.4597   0.0000   0.4487
  -4.600   1.1458   0.05858   0.05361  -0.2258  0.2951  0.4719  -1.4972   0.0000   0.4443
  -4.400   1.1715   0.05917   0.05420  -0.2263  0.2910  0.4813  -1.5331   0.0000   0.4401
  -4.200   1.1924   0.05953   0.05452  -0.2260  0.2865  0.4851  -1.5649   0.0000   0.4362
  -4.000   1.2133   0.05989   0.05486  -0.2258  0.2823  0.4881  -1.5968   0.0000   0.4323
  -3.800   1.2365   0.06038   0.05535  -0.2259  0.2791  0.4926  -1.6310   0.0000   0.4286
  -3.600   1.2583   0.06080   0.05575  -0.2257  0.2751  0.4964  -1.6649   0.0000   0.4250
  -3.400   1.2792   0.06118   0.05611  -0.2255  0.2707  0.5002  -1.6989   0.0000   0.4216
  -3.200   1.2996   0.06153   0.05643  -0.2251  0.2662  0.5034  -1.7330   0.0000   0.4182
  -3.000   1.3196   0.06187   0.05676  -0.2247  0.2638  0.5060  -1.7680   0.0000   0.4149
  -2.800   1.3417   0.06233   0.05721  -0.2246  0.2608  0.5097  -1.8053   0.0000   0.4118
  -2.600   1.3632   0.06276   0.05763  -0.2244  0.2575  0.5132  -1.8422   0.0000   0.4087
  -2.400   1.3840   0.06317   0.05801  -0.2241  0.2535  0.5169  -1.8795   0.0000   0.4057
  -2.200   1.4043   0.06355   0.05837  -0.2237  0.2497  0.5204  -1.9170   0.0000   0.4028
  -2.000   1.4239   0.06389   0.05872  -0.2232  0.2474  0.5232  -1.9542   0.0000   0.3999
  -1.800   1.4440   0.06428   0.05909  -0.2228  0.2447  0.5261  -1.9921   0.0000   0.3971
  -1.600   1.4648   0.06471   0.05951  -0.2225  0.2417  0.5296  -2.0309   0.0000   0.3944
  -1.400   1.4848   0.06510   0.05990  -0.2221  0.2383  0.5328  -2.0690   0.0000   0.3918
  -1.200   1.5043   0.06548   0.06025  -0.2216  0.2345  0.5360  -2.1066   0.0000   0.3892
  -1.000   1.5237   0.06584   0.06062  -0.2210  0.2324  0.5392  -2.1445   0.0000   0.3866
  -0.800   1.5426   0.06619   0.06095  -0.2204  0.2293  0.5420  -2.1820   0.0000   0.3842
  -0.600   1.5618   0.06658   0.06133  -0.2199  0.2255  0.5450  -2.2235   0.0000   0.3817
  -0.400   1.5815   0.06701   0.06174  -0.2194  0.2215  0.5484  -2.2657   0.0000   0.3794
  -0.200   1.6007   0.06741   0.06213  -0.2188  0.2188  0.5516  -2.3076   0.0000   0.3770
   0.000   1.6197   0.06778   0.06251  -0.2182  0.2170  0.5546  -2.3494   0.0000   0.3748
   0.200   1.6382   0.06815   0.06287  -0.2175  0.2146  0.5573  -2.3908   0.0000   0.3725
   0.400   1.6563   0.06851   0.06322  -0.2168  0.2115  0.5599  -2.4320   0.0000   0.3703
   0.600   1.6741   0.06889   0.06358  -0.2160  0.2076  0.5624  -2.4730   0.0000   0.3681
   0.800   1.6932   0.06933   0.06402  -0.2155  0.2041  0.5660  -2.5174   0.0000   0.3660
   1.000   1.7119   0.06975   0.06444  -0.2148  0.2020  0.5693  -2.5638   0.0000   0.3639
   1.200   1.7299   0.07015   0.06484  -0.2141  0.1994  0.5721  -2.6094   0.0000   0.3619
   1.400   1.7474   0.07054   0.06523  -0.2133  0.1966  0.5748  -2.6545   0.0000   0.3598
   1.600   1.7644   0.07094   0.06560  -0.2124  0.1932  0.5775  -2.6992   0.0000   0.3578
   1.800   1.7814   0.07133   0.06599  -0.2115  0.1902  0.5798  -2.7444   0.0000   0.3558
   2.000   1.7988   0.07174   0.06641  -0.2106  0.1881  0.5827  -2.7921   0.0000   0.3539
   2.200   1.8161   0.07217   0.06684  -0.2098  0.1853  0.5857  -2.8399   0.0000   0.3520
   2.400   1.8324   0.07261   0.06727  -0.2088  0.1816  0.5884  -2.8870   0.0000   0.3501
   2.600   1.8480   0.07308   0.06772  -0.2078  0.1776  0.5910  -2.9365   0.0000   0.3482
   2.800   1.8639   0.07356   0.06821  -0.2067  0.1755  0.5937  -2.9868   0.0000   0.3463
   3.000   1.8795   0.07406   0.06871  -0.2057  0.1731  0.5963  -3.0370   0.0000   0.3445
   3.200   1.8946   0.07458   0.06922  -0.2045  0.1697  0.5984  -3.0867   0.0000   0.3427
   3.400   1.9089   0.07511   0.06973  -0.2033  0.1655  0.6005  -3.1380   0.0000   0.3409
   3.600   1.9240   0.07559   0.07022  -0.2022  0.1629  0.6031  -3.1922   0.0000   0.3391
   3.800   1.9391   0.07608   0.07072  -0.2010  0.1604  0.6057  -3.2482   0.0000   0.3373
   4.000   1.9537   0.07658   0.07122  -0.1999  0.1570  0.6084  -3.3043   0.0000   0.3356
   4.200   1.9675   0.07714   0.07176  -0.1986  0.1528  0.6110  -3.3618   0.0000   0.3338
   4.400   1.9821   0.07765   0.07227  -0.1974  0.1501  0.6134  -3.4228   0.0000   0.3321
   4.600   1.9965   0.07817   0.07279  -0.1962  0.1471  0.6153  -3.4838   0.0000   0.3304
   4.800   2.0099   0.07875   0.07336  -0.1949  0.1433  0.6169  -3.5449   0.0000   0.3288
   5.000   2.0227   0.07935   0.07393  -0.1936  0.1391  0.6184  -3.6124   0.0000   0.3271
   5.200   2.0355   0.07989   0.07448  -0.1922  0.1356  0.6208  -3.6803   0.0000   0.3254
   5.400   2.0468   0.08057   0.07515  -0.1906  0.1313  0.6231  -3.7457   0.0000   0.3237
   5.600   2.0576   0.08131   0.07589  -0.1890  0.1281  0.6255  -3.8104   0.0000   0.3221
   5.800   2.0694   0.08198   0.07658  -0.1876  0.1260  0.6278  -3.8795   0.0000   0.3204
   6.000   2.0809   0.08267   0.07727  -0.1861  0.1233  0.6299  -3.9489   0.0000   0.3188
   6.200   2.0915   0.08342   0.07801  -0.1845  0.1199  0.6318  -4.0166   0.0000   0.3172
   6.400   2.1027   0.08413   0.07873  -0.1830  0.1168  0.6335  -4.0875   0.0000   0.3156
   6.600   2.1139   0.08486   0.07946  -0.1816  0.1132  0.6352  -4.1624   0.0000   0.3140
   6.800   2.1235   0.08574   0.08031  -0.1800  0.1090  0.6366  -4.2362   0.0000   0.3124
   7.000   2.1327   0.08650   0.08108  -0.1783  0.1062  0.6388  -4.3117   0.0000   0.3109
   7.200   2.1403   0.08742   0.08202  -0.1764  0.1032  0.6407  -4.3841   0.0000   0.3093
   7.400   2.1467   0.08844   0.08303  -0.1745  0.0994  0.6424  -4.4538   0.0000   0.3077
   7.600   2.1553   0.08927   0.08388  -0.1729  0.0966  0.6442  -4.5291   0.0000   0.3061
   7.800   2.1631   0.09019   0.08479  -0.1712  0.0930  0.6458  -4.6033   0.0000   0.3046
   8.000   2.1696   0.09123   0.08583  -0.1694  0.0895  0.6475  -4.6768   0.0000   0.3031
   8.200   2.1765   0.09231   0.08694  -0.1677  0.0872  0.6494  -4.7531   0.0000   0.3016
   8.400   2.1829   0.09346   0.08810  -0.1659  0.0844  0.6512  -4.8293   0.0000   0.3001
   8.600   2.1890   0.09465   0.08928  -0.1643  0.0814  0.6528  -4.9070   0.0000   0.2986
   8.800   2.1968   0.09571   0.09035  -0.1628  0.0789  0.6542  -4.9908   0.0000   0.2972
   9.000   2.2006   0.09718   0.09183  -0.1610  0.0758  0.6553  -5.0636   0.0000   0.2957
   9.200   2.2039   0.09842   0.09309  -0.1591  0.0732  0.6567  -5.1344   0.0000   0.2943
   9.400   2.2084   0.09954   0.09423  -0.1574  0.0707  0.6582  -5.2109   0.0000   0.2928
   9.600   2.2093   0.10107   0.09578  -0.1555  0.0681  0.6596  -5.2797   0.0000   0.2914
   9.800   2.2122   0.10240   0.09712  -0.1539  0.0659  0.6612  -5.3549   0.0000   0.2900
  10.000   2.2147   0.10379   0.09855  -0.1522  0.0637  0.6628  -5.4291   0.0000   0.2887
  10.200   2.2153   0.10543   0.10020  -0.1506  0.0613  0.6642  -5.4972   0.0000   0.2874
  10.400   2.2169   0.10700   0.10181  -0.1491  0.0595  0.6657  -5.5688   0.0000   0.2861
  10.600   2.2189   0.10857   0.10340  -0.1478  0.0575  0.6670  -5.6414   0.0000   0.2848
  10.800   2.2185   0.11041   0.10527  -0.1464  0.0555  0.6683  -5.7066   0.0000   0.2837
  11.000   2.2192   0.11217   0.10706  -0.1452  0.0539  0.6695  -5.7752   0.0000   0.2825
  11.200   2.2208   0.11385   0.10877  -0.1442  0.0522  0.6707  -5.8467   0.0000   0.2814
  11.400   2.2196   0.11587   0.11083  -0.1432  0.0503  0.6719  -5.9088   0.0000   0.2804
  11.600   2.2187   0.11790   0.11289  -0.1424  0.0486  0.6729  -5.9713   0.0000   0.2794
  11.800   2.2193   0.11974   0.11476  -0.1416  0.0470  0.6740  -6.0393   0.0000   0.2784
  12.000   2.2157   0.12178   0.11684  -0.1408  0.0454  0.6753  -6.0916   0.0000   0.2775
  12.200   2.2114   0.12393   0.11904  -0.1401  0.0440  0.6764  -6.1409   0.0000   0.2767
  12.400   2.2099   0.12577   0.12092  -0.1395  0.0428  0.6776  -6.1999   0.0000   0.2758
  12.600   2.2072   0.12776   0.12296  -0.1391  0.0416  0.6786  -6.2544   0.0000   0.2751
  12.800   2.2028   0.12998   0.12523  -0.1389  0.0405  0.6795  -6.3019   0.0000   0.2744
  13.000   2.1981   0.13226   0.12756  -0.1388  0.0394  0.6805  -6.3474   0.0000   0.2738
  13.200   2.1959   0.13423   0.12959  -0.1387  0.0386  0.6815  -6.4023   0.0000   0.2732
  13.400   2.1924   0.13639   0.13180  -0.1388  0.0377  0.6825  -6.4518   0.0000   0.2726
  13.600   2.1876   0.13875   0.13421  -0.1392  0.0367  0.6835  -6.4952   0.0000   0.2722
  13.800   2.1820   0.14122   0.13673  -0.1397  0.0358  0.6846  -6.5347   0.0000   0.2719
  14.000   2.1773   0.14361   0.13918  -0.1403  0.0350  0.6857  -6.5769   0.0000   0.2716
  14.200   2.1741   0.14585   0.14147  -0.1410  0.0343  0.6869  -6.6247   0.0000   0.2713
  14.400   2.1692   0.14835   0.14403  -0.1419  0.0335  0.6881  -6.6648   0.0000   0.2711
  14.600   2.1635   0.15097   0.14670  -0.1431  0.0327  0.6892  -6.7007   0.0000   0.2710
  14.800   2.1570   0.15371   0.14950  -0.1444  0.0319  0.6901  -6.7320   0.0000   0.2711
  15.000   2.1512   0.15639   0.15224  -0.1458  0.0312  0.6910  -6.7652   0.0000   0.2711
  15.200   2.1466   0.15891   0.15481  -0.1472  0.0307  0.6917  -6.8032   0.0000   0.2711
  15.400   2.1398   0.16158   0.15755  -0.1488  0.0301  0.6925  -6.8343   0.0000   0.2713
  15.600   2.1320   0.16424   0.16027  -0.1503  0.0295  0.6932  -6.8598   0.0000   0.2714
  15.800   2.1243   0.16689   0.16298  -0.1520  0.0289  0.6940  -6.8848   0.0000   0.2717
  16.000   2.1157   0.16969   0.16584  -0.1538  0.0283  0.6948  -6.9042   0.0000   0.2720
  16.200   2.1064   0.17260   0.16882  -0.1559  0.0278  0.6955  -6.9187   0.0000   0.2725
  16.400   2.0993   0.17520   0.17148  -0.1578  0.0273  0.6962  -6.9432   0.0000   0.2728
  16.600   2.0929   0.17767   0.17401  -0.1595  0.0269  0.6971  -6.9713   0.0000   0.2730
  16.800   2.0843   0.18051   0.17691  -0.1618  0.0264  0.6979  -6.9860   0.0000   0.2735
  17.000   2.0768   0.18317   0.17964  -0.1639  0.0258  0.6988  -7.0058   0.0000   0.2740
  17.200   2.0683   0.18600   0.18252  -0.1662  0.0253  0.6997  -7.0193   0.0000   0.2746
  17.400   2.0589   0.18902   0.18560  -0.1689  0.0248  0.7005  -7.0257   0.0000   0.2753
  17.600   2.0533   0.19146   0.18808  -0.1709  0.0243  0.7015  -7.0527   0.0000   0.2757
  17.800   2.0458   0.19424   0.19093  -0.1735  0.0239  0.7024  -7.0674   0.0000   0.2763
  18.000   2.0410   0.19662   0.19335  -0.1756  0.0234  0.7033  -7.0970   0.0000   0.2767
  18.200   2.0331   0.19951   0.19630  -0.1783  0.0229  0.7042  -7.1071   0.0000   0.2775
  18.400   2.0278   0.20199   0.19881  -0.1807  0.0224  0.7051  -7.1318   0.0000   0.2780
  18.600   2.0199   0.20490   0.20178  -0.1836  0.0219  0.7059  -7.1390   0.0000   0.2788
  18.800   2.0152   0.20730   0.20422  -0.1860  0.0215  0.7068  -7.1651   0.0000   0.2793
  19.000   2.0123   0.20944   0.20641  -0.1881  0.0210  0.7077  -7.2014   0.0000   0.2796
  19.200   2.0059   0.21216   0.20917  -0.1909  0.0206  0.7085  -7.2169   0.0000   0.2804
  19.400   2.0032   0.21432   0.21137  -0.1931  0.0201  0.7094  -7.2565   0.0000   0.2807
  19.600   1.9969   0.21701   0.21410  -0.1960  0.0197  0.7101  -7.2723   0.0000   0.2815
  19.800   1.9913   0.21926   0.21639  -0.1984  0.0193  0.7109  -7.2938   0.0000   0.2820
  20.000   1.9867   0.22132   0.21849  -0.2005  0.0188  0.7118  -7.3223   0.0000   0.2824
  20.200   1.9804   0.22370   0.22093  -0.2031  0.0186  0.7125  -7.3366   0.0000   0.2831
  20.400   1.9770   0.22558   0.22285  -0.2051  0.0182  0.7133  -7.3711   0.0000   0.2834
  20.600   1.9737   0.22743   0.22473  -0.2071  0.0178  0.7140  -7.4063   0.0000   0.2836
  20.800   1.9671   0.22988   0.22724  -0.2099  0.0175  0.7146  -7.4157   0.0000   0.2844
  21.000   1.9630   0.23188   0.22927  -0.2122  0.0171  0.7152  -7.4443   0.0000   0.2849
  21.200   1.9593   0.23383   0.23124  -0.2144  0.0166  0.7159  -7.4755   0.0000   0.2853
  21.400   1.9527   0.23630   0.23376  -0.2174  0.0163  0.7166  -7.4830   0.0000   0.2861
  21.600   1.9499   0.23808   0.23558  -0.2195  0.0160  0.7173  -7.5203   0.0000   0.2864
  21.800   1.9476   0.23978   0.23730  -0.2215  0.0156  0.7181  -7.5608   0.0000   0.2866
  22.000   1.9422   0.24206   0.23963  -0.2243  0.0153  0.7188  -7.5747   0.0000   0.2874
  22.200   1.9383   0.24410   0.24171  -0.2269  0.0149  0.7196  -7.5993   0.0000   0.2879
  22.400   1.9355   0.24592   0.24355  -0.2292  0.0145  0.7205  -7.6335   0.0000   0.2883
  22.600   1.9303   0.24821   0.24588  -0.2321  0.0142  0.7213  -7.6453   0.0000   0.2891
  22.800   1.9272   0.25013   0.24784  -0.2346  0.0140  0.7222  -7.6737   0.0000   0.2895
  23.000   1.9261   0.25170   0.24943  -0.2366  0.0137  0.7233  -7.7192   0.0000   0.2897
  23.200   1.9247   0.25333   0.25109  -0.2388  0.0135  0.7244  -7.7614   0.0000   0.2899
  23.400   1.9198   0.25561   0.25342  -0.2419  0.0132  0.7253  -7.7712   0.0000   0.2907
  23.600   1.9177   0.25738   0.25521  -0.2443  0.0129  0.7262  -7.8055   0.0000   0.2911
  23.800   1.9159   0.25907   0.25693  -0.2466  0.0126  0.7270  -7.8417   0.0000   0.2914
  24.000   1.9114   0.26118   0.25907  -0.2495  0.0124  0.7276  -7.8533   0.0000   0.2921


