xflr5 v6.47

 Calculated polar for: NACA24018_theta30_Ku4.5_Kl0.5_d0.17_delta4.56

 1 1 Reynolds number fixed          Mach number fixed         

 xtrf =   1.000 (top)        1.000 (bottom)
 Mach =   0.000     Re =     2.400 e 6     Ncrit =   5.000

  alpha     CL        CD       CDp       Cm    Top Xtr Bot Xtr   Cpmin    Chinge    XCp    
 ------- -------- --------- --------- -------- ------- ------- -------- --------- ---------
 -15.000  -0.9333   0.02554   0.02105  -0.0978  0.9066  0.0265  -6.3988   0.0000   0.1218
 -14.800  -0.9173   0.02513   0.02064  -0.0976  0.9066  0.0269  -6.2715   0.0000   0.1204
 -14.600  -0.8989   0.02476   0.02026  -0.0978  0.9065  0.0273  -6.1359   0.0000   0.1182
 -14.400  -0.8787   0.02442   0.01992  -0.0981  0.9064  0.0277  -5.9948   0.0000   0.1154
 -14.200  -0.8574   0.02411   0.01961  -0.0987  0.9063  0.0281  -5.8506   0.0000   0.1122
 -14.000  -0.8306   0.02376   0.01926  -0.1001  0.9061  0.0285  -5.6891   0.0000   0.1068
 -13.800  -0.8218   0.02340   0.01890  -0.0984  0.9029  0.0288  -5.5903   0.0000   0.1079
 -13.600  -0.7962   0.02302   0.01852  -0.0994  0.9015  0.0292  -5.4353   0.0000   0.1028
 -13.400  -0.7672   0.02263   0.01813  -0.1010  0.9006  0.0295  -5.2703   0.0000   0.0959
 -13.200  -0.7375   0.02225   0.01775  -0.1028  0.9001  0.0300  -5.1102   0.0000   0.0881
 -13.000  -0.7064   0.02186   0.01736  -0.1048  0.8996  0.0307  -4.9491   0.0000   0.0790
 -12.800  -0.6753   0.02150   0.01701  -0.1067  0.8993  0.0314  -4.7900   0.0000   0.0690
 -12.600  -0.6447   0.02118   0.01670  -0.1086  0.8990  0.0321  -4.6339   0.0000   0.0584
 -12.400  -0.6133   0.02087   0.01639  -0.1105  0.8988  0.0327  -4.4777   0.0000   0.0463
 -12.200  -0.5810   0.02054   0.01607  -0.1126  0.8985  0.0332  -4.3211   0.0000   0.0323
 -12.000  -0.5486   0.02020   0.01575  -0.1147  0.8983  0.0341  -4.1663   0.0000   0.0164
 -11.800  -0.5170   0.01990   0.01546  -0.1167  0.8981  0.0349  -4.0158   0.0000  -0.0008
 -11.600  -0.5082   0.02003   0.01560  -0.1147  0.8951  0.0354  -3.9314   0.0000  -0.0005
 -11.400  -0.4828   0.01986   0.01543  -0.1155  0.8935  0.0361  -3.8052   0.0000  -0.0145
 -10.600  -0.3764   0.01919   0.01481  -0.1196  0.8848  0.0397  -3.3083   0.0000  -0.0958
 -10.400  -0.3518   0.01916   0.01479  -0.1202  0.8817  0.0404  -3.1929   0.0000  -0.1208
 -10.200  -0.3632   0.02032   0.01597  -0.1147  0.8532  0.0405  -3.1686   0.0000  -0.0936
 -10.000  -0.3188   0.01969   0.01534  -0.1187  0.8476  0.0420  -3.0062   0.0000  -0.1524
  -9.800  -0.2702   0.01890   0.01454  -0.1234  0.8427  0.0435  -2.8379   0.0000  -0.2407
  -9.600  -0.1882   0.01692   0.01245  -0.1340  0.8225  0.0460  -2.6059   0.0000  -0.5083
  -9.400  -0.1695   0.01681   0.01202  -0.1335  0.7461  0.0473  -2.5176   0.0000  -0.5868
  -9.200  -0.1514   0.01697   0.01206  -0.1329  0.7120  0.0485  -2.4311   0.0000  -0.6815
  -9.000  -0.1294   0.01706   0.01206  -0.1330  0.6874  0.0496  -2.3376   0.0000  -0.8384
  -8.800  -0.1052   0.01711   0.01205  -0.1336  0.6664  0.0512  -2.2407   0.0000  -1.0911
  -8.600  -0.0806   0.01716   0.01203  -0.1341  0.6458  0.0529  -2.1443   0.0000  -1.5028
  -8.400  -0.0554   0.01720   0.01200  -0.1348  0.6236  0.0548  -2.0478   0.0000  -2.3084
  -8.200  -0.0297   0.01723   0.01197  -0.1356  0.6016  0.0569  -1.9526   0.0000  -4.5443
  -8.000  -0.0039   0.01726   0.01193  -0.1364  0.5811  0.0588  -1.8622   0.0000  -36.8239
  -7.800   0.0233   0.01728   0.01191  -0.1374  0.5641  0.0614  -1.7706   0.0000   6.3994
  -7.600   0.0500   0.01730   0.01188  -0.1383  0.5480  0.0635  -1.6813   0.0000   3.1345
  -7.400   0.0776   0.01732   0.01185  -0.1394  0.5311  0.0660  -1.5942   0.0000   2.1184
  -7.200   0.1049   0.01734   0.01181  -0.1404  0.5133  0.0686  -1.5106   0.0000   1.6393
  -7.000   0.1324   0.01736   0.01179  -0.1415  0.4965  0.0715  -1.4302   0.0000   1.3567
  -6.800   0.1594   0.01741   0.01178  -0.1424  0.4808  0.0748  -1.3535   0.0000   1.1738
  -6.600   0.1870   0.01746   0.01179  -0.1435  0.4647  0.0791  -1.2770   0.0000   1.0421
  -6.400   0.2139   0.01751   0.01180  -0.1445  0.4494  0.0829  -1.2025   0.0000   0.9455
  -6.200   0.2414   0.01758   0.01184  -0.1455  0.4358  0.0878  -1.1285   0.0000   0.8697
  -6.000   0.2691   0.01765   0.01188  -0.1466  0.4233  0.0935  -1.0552   0.0000   0.8089
  -5.800   0.2968   0.01772   0.01193  -0.1476  0.4106  0.0995  -0.9834   0.0000   0.7597
  -5.600   0.3241   0.01780   0.01198  -0.1486  0.3989  0.1054  -0.9131   0.0000   0.7190
  -5.400   0.3517   0.01789   0.01204  -0.1497  0.3861  0.1124  -0.8469   0.0000   0.6845
  -5.200   0.3801   0.01798   0.01213  -0.1509  0.3764  0.1215  -0.8349   0.0000   0.6546
  -5.000   0.4085   0.01808   0.01222  -0.1521  0.3661  0.1316  -0.8643   0.0000   0.6287
  -4.800   0.4372   0.01819   0.01232  -0.1534  0.3565  0.1428  -0.8941   0.0000   0.6062
  -4.600   0.4684   0.01832   0.01247  -0.1551  0.3472  0.1614  -0.9257   0.0000   0.5857
  -4.400   0.5006   0.01847   0.01266  -0.1571  0.3405  0.1851  -0.9583   0.0000   0.5675
  -4.200   0.5349   0.01864   0.01287  -0.1595  0.3324  0.2148  -0.9926   0.0000   0.5511
  -4.000   0.5828   0.01894   0.01334  -0.1646  0.3266  0.2846  -1.0368   0.0000   0.5346
  -3.800   0.6254   0.01922   0.01373  -0.1686  0.3200  0.3374  -1.0777   0.0000   0.5212
  -3.600   0.6617   0.01945   0.01400  -0.1713  0.3130  0.3712  -1.1144   0.0000   0.5100
  -3.400   0.6942   0.01965   0.01424  -0.1733  0.3082  0.3957  -1.1487   0.0000   0.5002
  -3.200   0.7267   0.01986   0.01446  -0.1752  0.3014  0.4190  -1.1832   0.0000   0.4913
  -3.000   0.7588   0.02008   0.01470  -0.1771  0.2954  0.4405  -1.2183   0.0000   0.4831
  -2.800   0.7889   0.02029   0.01494  -0.1785  0.2925  0.4582  -1.2542   0.0000   0.4756
  -2.600   0.8200   0.02052   0.01520  -0.1802  0.2887  0.4779  -1.2912   0.0000   0.4687
  -2.400   0.8512   0.02077   0.01545  -0.1818  0.2837  0.4974  -1.3285   0.0000   0.4622
  -2.200   0.8813   0.02100   0.01570  -0.1833  0.2788  0.5142  -1.3652   0.0000   0.4562
  -2.000   0.9107   0.02124   0.01595  -0.1846  0.2760  0.5261  -1.4026   0.0000   0.4505
  -1.800   0.9352   0.02140   0.01610  -0.1849  0.2727  0.5316  -1.4366   0.0000   0.4453
  -1.600   0.9588   0.02155   0.01622  -0.1851  0.2687  0.5355  -1.4707   0.0000   0.4403
  -1.200   1.0099   0.02193   0.01658  -0.1861  0.2614  0.5463  -1.5442   0.0000   0.4309
  -1.000   1.0339   0.02209   0.01674  -0.1864  0.2589  0.5507  -1.5798   0.0000   0.4266
  -0.800   1.0570   0.02225   0.01688  -0.1864  0.2562  0.5543  -1.6148   0.0000   0.4224
  -0.600   1.0818   0.02244   0.01705  -0.1868  0.2529  0.5591  -1.6516   0.0000   0.4184
  -0.400   1.1073   0.02265   0.01725  -0.1873  0.2488  0.5651  -1.6892   0.0000   0.4146
  -0.200   1.1314   0.02284   0.01744  -0.1876  0.2464  0.5704  -1.7258   0.0000   0.4110
   0.000   1.1544   0.02301   0.01760  -0.1876  0.2437  0.5744  -1.7615   0.0000   0.4074
   0.200   1.1786   0.02321   0.01779  -0.1879  0.2402  0.5788  -1.7996   0.0000   0.4040
   0.400   1.2033   0.02344   0.01801  -0.1883  0.2364  0.5839  -1.8403   0.0000   0.4008
   0.600   1.2269   0.02365   0.01820  -0.1884  0.2328  0.5891  -1.8801   0.0000   0.3976
   0.800   1.2498   0.02384   0.01839  -0.1884  0.2312  0.5936  -1.9194   0.0000   0.3945
   1.000   1.2728   0.02404   0.01859  -0.1885  0.2287  0.5977  -1.9592   0.0000   0.3915
   1.200   1.2974   0.02428   0.01883  -0.1888  0.2252  0.6029  -2.0008   0.0000   0.3887
   1.400   1.3204   0.02452   0.01904  -0.1889  0.2211  0.6074  -2.0419   0.0000   0.3859
   1.600   1.3426   0.02473   0.01925  -0.1888  0.2180  0.6114  -2.0845   0.0000   0.3832
   1.800   1.3644   0.02493   0.01945  -0.1886  0.2159  0.6150  -2.1269   0.0000   0.3805
   2.000   1.3876   0.02518   0.01970  -0.1887  0.2135  0.6196  -2.1711   0.0000   0.3780
   2.200   1.4113   0.02545   0.01996  -0.1889  0.2107  0.6248  -2.2162   0.0000   0.3755
   2.400   1.4334   0.02571   0.02021  -0.1887  0.2073  0.6297  -2.2596   0.0000   0.3731
   2.600   1.4547   0.02596   0.02045  -0.1885  0.2043  0.6338  -2.3024   0.0000   0.3707
   2.800   1.4756   0.02620   0.02069  -0.1881  0.2019  0.6371  -2.3450   0.0000   0.3683
   3.000   1.4988   0.02650   0.02099  -0.1882  0.1989  0.6419  -2.3924   0.0000   0.3661
   3.200   1.5205   0.02680   0.02128  -0.1880  0.1959  0.6460  -2.4397   0.0000   0.3639
   3.400   1.5412   0.02709   0.02156  -0.1877  0.1922  0.6498  -2.4859   0.0000   0.3617
   3.600   1.5618   0.02735   0.02183  -0.1873  0.1901  0.6535  -2.5324   0.0000   0.3595
   3.800   1.5816   0.02762   0.02210  -0.1867  0.1874  0.6565  -2.5784   0.0000   0.3574
   4.000   1.6032   0.02796   0.02242  -0.1865  0.1842  0.6608  -2.6302   0.0000   0.3554
   4.200   1.6241   0.02830   0.02276  -0.1862  0.1808  0.6650  -2.6812   0.0000   0.3534
   4.400   1.6447   0.02860   0.02307  -0.1858  0.1786  0.6691  -2.7327   0.0000   0.3514
   4.600   1.6645   0.02890   0.02337  -0.1853  0.1762  0.6727  -2.7848   0.0000   0.3494
   4.800   1.6834   0.02921   0.02367  -0.1846  0.1732  0.6755  -2.8367   0.0000   0.3474
   5.000   1.7019   0.02955   0.02400  -0.1839  0.1695  0.6780  -2.8891   0.0000   0.3455
   5.200   1.7221   0.02992   0.02436  -0.1835  0.1666  0.6817  -2.9445   0.0000   0.3436
   5.400   1.7419   0.03028   0.02473  -0.1829  0.1636  0.6854  -2.9996   0.0000   0.3418
   5.600   1.7601   0.03068   0.02511  -0.1822  0.1596  0.6889  -3.0527   0.0000   0.3400
   5.800   1.7781   0.03107   0.02549  -0.1814  0.1562  0.6920  -3.1082   0.0000   0.3381
   6.000   1.7961   0.03142   0.02585  -0.1806  0.1539  0.6945  -3.1673   0.0000   0.3363
   6.200   1.8130   0.03182   0.02624  -0.1796  0.1507  0.6965  -3.2250   0.0000   0.3345
   6.400   1.8294   0.03233   0.02674  -0.1785  0.1466  0.6994  -3.2849   0.0000   0.3327
   6.600   1.8470   0.03280   0.02721  -0.1777  0.1437  0.7029  -3.3487   0.0000   0.3309
   6.800   1.8632   0.03330   0.02771  -0.1766  0.1400  0.7060  -3.4124   0.0000   0.3292
   7.000   1.8784   0.03384   0.02823  -0.1754  0.1359  0.7089  -3.4775   0.0000   0.3274
   7.200   1.8949   0.03429   0.02869  -0.1743  0.1336  0.7117  -3.5468   0.0000   0.3257
   7.400   1.9104   0.03478   0.02919  -0.1732  0.1304  0.7141  -3.6154   0.0000   0.3240
   7.600   1.9245   0.03537   0.02975  -0.1718  0.1263  0.7159  -3.6837   0.0000   0.3222
   7.800   1.9394   0.03590   0.03028  -0.1706  0.1228  0.7178  -3.7609   0.0000   0.3205
   8.000   1.9522   0.03661   0.03097  -0.1690  0.1182  0.7204  -3.8342   0.0000   0.3188
   8.200   1.9659   0.03725   0.03162  -0.1676  0.1151  0.7231  -3.9099   0.0000   0.3171
   8.400   1.9788   0.03792   0.03230  -0.1661  0.1118  0.7257  -3.9844   0.0000   0.3154
   8.600   1.9911   0.03864   0.03301  -0.1645  0.1086  0.7280  -4.0580   0.0000   0.3137
   8.800   2.0047   0.03926   0.03364  -0.1632  0.1062  0.7302  -4.1350   0.0000   0.3121
   9.000   2.0170   0.03996   0.03434  -0.1616  0.1033  0.7320  -4.2096   0.0000   0.3104
   9.200   2.0276   0.04078   0.03516  -0.1599  0.1006  0.7337  -4.2809   0.0000   0.3087
   9.400   2.0390   0.04155   0.03595  -0.1583  0.0980  0.7353  -4.3574   0.0000   0.3071
   9.600   2.0481   0.04250   0.03688  -0.1563  0.0941  0.7367  -4.4337   0.0000   0.3054
   9.800   2.0583   0.04336   0.03775  -0.1546  0.0907  0.7390  -4.5128   0.0000   0.3038
  10.000   2.0651   0.04447   0.03885  -0.1525  0.0868  0.7409  -4.5867   0.0000   0.3020
  10.200   2.0739   0.04543   0.03984  -0.1506  0.0841  0.7427  -4.6660   0.0000   0.3004
  10.400   2.0823   0.04644   0.04085  -0.1487  0.0814  0.7446  -4.7448   0.0000   0.2988
  10.600   2.0893   0.04757   0.04200  -0.1467  0.0789  0.7465  -4.8205   0.0000   0.2972
  10.800   2.0967   0.04869   0.04313  -0.1448  0.0764  0.7483  -4.8977   0.0000   0.2956
  11.000   2.1023   0.04996   0.04441  -0.1428  0.0736  0.7500  -4.9706   0.0000   0.2940
  11.200   2.1086   0.05121   0.04568  -0.1409  0.0715  0.7516  -5.0456   0.0000   0.2924
  11.400   2.1142   0.05253   0.04702  -0.1390  0.0690  0.7529  -5.1217   0.0000   0.2909
  11.600   2.1183   0.05403   0.04853  -0.1370  0.0670  0.7541  -5.1937   0.0000   0.2893
  11.800   2.1234   0.05547   0.05000  -0.1352  0.0649  0.7551  -5.2688   0.0000   0.2879
  12.000   2.1251   0.05715   0.05171  -0.1331  0.0626  0.7568  -5.3362   0.0000   0.2864
  12.200   2.1279   0.05878   0.05337  -0.1312  0.0607  0.7585  -5.4101   0.0000   0.2849
  12.400   2.1294   0.06056   0.05519  -0.1294  0.0585  0.7599  -5.4804   0.0000   0.2835
  12.600   2.1290   0.06258   0.05723  -0.1275  0.0565  0.7612  -5.5447   0.0000   0.2821
  12.800   2.1303   0.06447   0.05917  -0.1259  0.0548  0.7625  -5.6139   0.0000   0.2808
  13.000   2.1295   0.06660   0.06133  -0.1242  0.0531  0.7637  -5.6769   0.0000   0.2796
  13.200   2.1284   0.06881   0.06358  -0.1227  0.0515  0.7649  -5.7389   0.0000   0.2784
  13.400   2.1283   0.07096   0.06578  -0.1214  0.0500  0.7661  -5.8038   0.0000   0.2772
  13.600   2.1257   0.07345   0.06831  -0.1202  0.0485  0.7673  -5.8602   0.0000   0.2762
  13.800   2.1223   0.07608   0.07098  -0.1191  0.0471  0.7685  -5.9139   0.0000   0.2752
  14.000   2.1204   0.07858   0.07353  -0.1182  0.0459  0.7696  -5.9722   0.0000   0.2742
  14.200   2.1167   0.08133   0.07633  -0.1174  0.0446  0.7706  -6.0240   0.0000   0.2734
  14.400   2.1110   0.08436   0.07942  -0.1168  0.0433  0.7714  -6.0682   0.0000   0.2727
  14.600   2.1078   0.08712   0.08223  -0.1163  0.0423  0.7722  -6.1204   0.0000   0.2720
  14.800   2.1033   0.09006   0.08523  -0.1161  0.0412  0.7728  -6.1676   0.0000   0.2713
  15.000   2.0969   0.09326   0.08849  -0.1160  0.0402  0.7733  -6.2074   0.0000   0.2709
  15.200   2.0888   0.09660   0.09189  -0.1160  0.0393  0.7743  -6.2398   0.0000   0.2705
  15.400   2.0827   0.09972   0.09507  -0.1161  0.0386  0.7753  -6.2785   0.0000   0.2701
  15.600   2.0759   0.10294   0.09836  -0.1164  0.0378  0.7764  -6.3140   0.0000   0.2698
  15.800   2.0681   0.10633   0.10182  -0.1170  0.0370  0.7773  -6.3442   0.0000   0.2696
  16.000   2.0591   0.10990   0.10546  -0.1177  0.0362  0.7782  -6.3690   0.0000   0.2696
  16.200   2.0492   0.11361   0.10923  -0.1187  0.0355  0.7791  -6.3905   0.0000   0.2697
  16.400   2.0418   0.11697   0.11267  -0.1197  0.0349  0.7800  -6.4208   0.0000   0.2697
  16.600   2.0343   0.12037   0.11614  -0.1208  0.0343  0.7808  -6.4496   0.0000   0.2698
  16.800   2.0256   0.12397   0.11980  -0.1222  0.0337  0.7816  -6.4720   0.0000   0.2701
  17.000   2.0153   0.12782   0.12373  -0.1238  0.0330  0.7824  -6.4863   0.0000   0.2705
  17.200   2.0042   0.13181   0.12778  -0.1257  0.0324  0.7831  -6.4956   0.0000   0.2711
  17.400   1.9939   0.13571   0.13175  -0.1277  0.0318  0.7838  -6.5062   0.0000   0.2717
  17.600   1.9854   0.13934   0.13544  -0.1296  0.0313  0.7846  -6.5239   0.0000   0.2722
  17.800   1.9781   0.14280   0.13897  -0.1315  0.0307  0.7854  -6.5457   0.0000   0.2727
  18.000   1.9681   0.14669   0.14292  -0.1339  0.0302  0.7862  -6.5568   0.0000   0.2735
  18.200   1.9573   0.15069   0.14699  -0.1364  0.0296  0.7869  -6.5627   0.0000   0.2745
  18.400   1.9472   0.15460   0.15096  -0.1390  0.0291  0.7877  -6.5701   0.0000   0.2754
  18.600   1.9402   0.15804   0.15446  -0.1413  0.0285  0.7885  -6.5915   0.0000   0.2761
  18.800   1.9318   0.16173   0.15821  -0.1439  0.0281  0.7891  -6.6044   0.0000   0.2771
  19.000   1.9267   0.16489   0.16141  -0.1462  0.0276  0.7898  -6.6338   0.0000   0.2777
  19.200   1.9180   0.16862   0.16521  -0.1490  0.0271  0.7903  -6.6426   0.0000   0.2788
  19.400   1.9107   0.17205   0.16869  -0.1516  0.0265  0.7909  -6.6580   0.0000   0.2797
  19.600   1.9025   0.17551   0.17220  -0.1542  0.0260  0.7917  -6.6678   0.0000   0.2806
  19.800   1.8952   0.17885   0.17560  -0.1568  0.0256  0.7925  -6.6807   0.0000   0.2816
  20.000   1.8899   0.18185   0.17865  -0.1592  0.0251  0.7934  -6.7041   0.0000   0.2823
  20.200   1.8856   0.18465   0.18150  -0.1614  0.0246  0.7942  -6.7328   0.0000   0.2829
  20.400   1.8779   0.18804   0.18494  -0.1643  0.0241  0.7951  -6.7402   0.0000   0.2840
  20.600   1.8737   0.19082   0.18775  -0.1666  0.0235  0.7960  -6.7679   0.0000   0.2847
  20.800   1.8653   0.19436   0.19134  -0.1697  0.0230  0.7968  -6.7678   0.0000   0.2860
  21.000   1.8626   0.19690   0.19392  -0.1719  0.0226  0.7977  -6.8021   0.0000   0.2866
  21.200   1.8574   0.19990   0.19696  -0.1746  0.0222  0.7986  -6.8200   0.0000   0.2875
  21.400   1.8539   0.20262   0.19973  -0.1771  0.0218  0.7994  -6.8469   0.0000   0.2882
  21.600   1.8514   0.20516   0.20230  -0.1794  0.0213  0.8002  -6.8801   0.0000   0.2888
  21.800   1.8450   0.20843   0.20562  -0.1826  0.0208  0.8009  -6.8857   0.0000   0.2901
  22.000   1.8420   0.21107   0.20829  -0.1851  0.0204  0.8017  -6.9137   0.0000   0.2908
  22.200   1.8397   0.21360   0.21086  -0.1876  0.0200  0.8024  -6.9448   0.0000   0.2915
  22.400   1.8359   0.21639   0.21369  -0.1904  0.0197  0.8031  -6.9652   0.0000   0.2924
  22.600   1.8349   0.21869   0.21601  -0.1927  0.0194  0.8038  -7.0038   0.0000   0.2929
  22.800   1.8324   0.22124   0.21860  -0.1953  0.0190  0.8045  -7.0316   0.0000   0.2937
  23.000   1.8287   0.22402   0.22142  -0.1982  0.0187  0.8051  -7.0493   0.0000   0.2947
  23.200   1.8271   0.22640   0.22383  -0.2007  0.0183  0.8057  -7.0822   0.0000   0.2953
  23.400   1.8231   0.22923   0.22669  -0.2037  0.0179  0.8062  -7.0962   0.0000   0.2964
  23.600   1.8211   0.23170   0.22919  -0.2064  0.0177  0.8067  -7.1236   0.0000   0.2971
  23.800   1.8206   0.23368   0.23121  -0.2085  0.0174  0.8076  -7.1644   0.0000   0.2975
  24.000   1.8180   0.23601   0.23358  -0.2109  0.0171  0.8085  -7.1889   0.0000   0.2981
  24.200   1.8148   0.23846   0.23607  -0.2136  0.0168  0.8093  -7.2074   0.0000   0.2990
  24.400   1.8135   0.24051   0.23815  -0.2158  0.0164  0.8101  -7.2411   0.0000   0.2994
  24.600   1.8108   0.24286   0.24053  -0.2184  0.0161  0.8108  -7.2621   0.0000   0.3002
  24.800   1.8065   0.24552   0.24322  -0.2214  0.0158  0.8114  -7.2688   0.0000   0.3012
  25.000   1.8052   0.24759   0.24532  -0.2237  0.0155  0.8121  -7.2996   0.0000   0.3018


