xflr5 v6.47

 Calculated polar for: NACA24018_theta30_Ku4.5_Kl0.5_d0.35_delta13.38

 1 1 Reynolds number fixed          Mach number fixed         

 xtrf =   1.000 (top)        1.000 (bottom)
 Mach =   0.000     Re =     2.200 e 6     Ncrit =   5.000

  alpha     CL        CD       CDp       Cm    Top Xtr Bot Xtr   Cpmin    Chinge    XCp    
 ------- -------- --------- --------- -------- ------- ------- -------- --------- ---------
 -10.200   0.7791   0.07332   0.06987  -0.2094  0.5904  0.1251  -1.2442   0.0000   0.5211
 -10.000   0.7855   0.07545   0.07181  -0.2078  0.5454  0.1297  -1.2082   0.0000   0.5160
  -9.800   0.8056   0.07700   0.07324  -0.2079  0.5134  0.1389  -1.1982   0.0000   0.5089
  -9.600   0.8280   0.07827   0.07440  -0.2083  0.4854  0.1484  -1.1949   0.0000   0.5018
  -9.400   0.8505   0.07933   0.07537  -0.2086  0.4606  0.1567  -1.1942   0.0000   0.4950
  -9.200   0.8760   0.08041   0.07638  -0.2094  0.4404  0.1677  -1.1980   0.0000   0.4882
  -9.000   0.9040   0.08155   0.07747  -0.2105  0.4235  0.1826  -1.2050   0.0000   0.4815
  -8.800   0.9370   0.08297   0.07885  -0.2124  0.4061  0.2051  -1.2173   0.0000   0.4748
  -8.600   0.9700   0.08438   0.08023  -0.2142  0.3905  0.2269  -1.2297   0.0000   0.4686
  -8.400   1.0063   0.08609   0.08191  -0.2166  0.3754  0.2564  -1.2444   0.0000   0.4625
  -8.200   1.0454   0.08808   0.08389  -0.2194  0.3599  0.2943  -1.2608   0.0000   0.4567
  -8.000   1.0835   0.09004   0.08582  -0.2220  0.3459  0.3276  -1.3036   0.0000   0.4513
  -7.800   1.1170   0.09164   0.08741  -0.2238  0.3370  0.3505  -1.3452   0.0000   0.4464
  -7.600   1.1461   0.09294   0.08868  -0.2250  0.3281  0.3686  -1.3832   0.0000   0.4419
  -7.400   1.1713   0.09391   0.08964  -0.2255  0.3220  0.3805  -1.4177   0.0000   0.4378
  -7.200   1.1950   0.09478   0.09049  -0.2258  0.3169  0.3912  -1.4512   0.0000   0.4339
  -7.000   1.2185   0.09566   0.09134  -0.2261  0.3101  0.4005  -1.4848   0.0000   0.4301
  -6.800   1.2431   0.09661   0.09226  -0.2265  0.3033  0.4106  -1.5195   0.0000   0.4265
  -6.600   1.2629   0.09716   0.09280  -0.2262  0.2993  0.4148  -1.5500   0.0000   0.4230
  -6.400   1.2861   0.09801   0.09362  -0.2265  0.2942  0.4224  -1.5853   0.0000   0.4196
  -6.200   1.3080   0.09876   0.09434  -0.2265  0.2882  0.4303  -1.6200   0.0000   0.4164
  -6.000   1.3272   0.09928   0.09484  -0.2261  0.2841  0.4354  -1.6531   0.0000   0.4133
  -5.800   1.3472   0.09986   0.09541  -0.2258  0.2809  0.4405  -1.6872   0.0000   0.4102
  -5.600   1.3687   0.10056   0.09610  -0.2257  0.2774  0.4467  -1.7230   0.0000   0.4072
  -5.400   1.3879   0.10109   0.09661  -0.2253  0.2735  0.4511  -1.7566   0.0000   0.4043
  -5.200   1.4062   0.10155   0.09704  -0.2248  0.2688  0.4545  -1.7893   0.0000   0.4015
  -5.000   1.4243   0.10199   0.09746  -0.2243  0.2657  0.4572  -1.8222   0.0000   0.3988
  -4.800   1.4423   0.10240   0.09786  -0.2237  0.2626  0.4593  -1.8549   0.0000   0.3961
  -4.600   1.4614   0.10294   0.09838  -0.2233  0.2583  0.4630  -1.8918   0.0000   0.3934
  -4.400   1.4804   0.10347   0.09888  -0.2228  0.2537  0.4663  -1.9290   0.0000   0.3909
  -4.200   1.4986   0.10393   0.09932  -0.2223  0.2494  0.4697  -1.9654   0.0000   0.3884
  -4.000   1.5163   0.10434   0.09973  -0.2216  0.2477  0.4728  -2.0015   0.0000   0.3859
  -3.800   1.5336   0.10471   0.10010  -0.2210  0.2455  0.4753  -2.0372   0.0000   0.3835
  -3.600   1.5505   0.10507   0.10045  -0.2202  0.2429  0.4773  -2.0727   0.0000   0.3811
  -3.400   1.5672   0.10543   0.10079  -0.2194  0.2397  0.4790  -2.1081   0.0000   0.3788
  -3.200   1.5838   0.10580   0.10112  -0.2187  0.2356  0.4812  -2.1434   0.0000   0.3766
  -3.000   1.6011   0.10624   0.10155  -0.2180  0.2320  0.4849  -2.1799   0.0000   0.3743
  -2.800   1.6181   0.10667   0.10199  -0.2173  0.2295  0.4878  -2.2161   0.0000   0.3721
  -2.600   1.6346   0.10707   0.10238  -0.2165  0.2263  0.4904  -2.2536   0.0000   0.3700
  -2.400   1.6507   0.10745   0.10275  -0.2157  0.2232  0.4929  -2.2922   0.0000   0.3679
  -2.200   1.6666   0.10783   0.10310  -0.2148  0.2198  0.4952  -2.3306   0.0000   0.3658
  -2.000   1.6825   0.10820   0.10345  -0.2139  0.2166  0.4974  -2.3691   0.0000   0.3637
  -1.800   1.6986   0.10858   0.10384  -0.2131  0.2149  0.4994  -2.4081   0.0000   0.3617
  -1.600   1.7147   0.10896   0.10421  -0.2123  0.2125  0.5011  -2.4474   0.0000   0.3597
  -1.400   1.7305   0.10932   0.10457  -0.2114  0.2094  0.5039  -2.4863   0.0000   0.3577
  -1.200   1.7467   0.10974   0.10496  -0.2106  0.2055  0.5070  -2.5267   0.0000   0.3558
  -1.000   1.7624   0.11011   0.10531  -0.2097  0.2014  0.5097  -2.5675   0.0000   0.3539
  -0.800   1.7779   0.11045   0.10565  -0.2088  0.1993  0.5122  -2.6102   0.0000   0.3520
  -0.600   1.7932   0.11077   0.10597  -0.2079  0.1966  0.5145  -2.6540   0.0000   0.3502
  -0.400   1.8083   0.11109   0.10629  -0.2069  0.1939  0.5168  -2.6978   0.0000   0.3483
  -0.200   1.8231   0.11142   0.10659  -0.2059  0.1910  0.5188  -2.7414   0.0000   0.3465
   0.000   1.8379   0.11175   0.10691  -0.2049  0.1875  0.5207  -2.7851   0.0000   0.3447
   0.200   1.8531   0.11208   0.10723  -0.2040  0.1855  0.5224  -2.8296   0.0000   0.3430
   0.400   1.8676   0.11237   0.10752  -0.2030  0.1824  0.5246  -2.8733   0.0000   0.3412
   0.600   1.8817   0.11269   0.10783  -0.2019  0.1784  0.5276  -2.9166   0.0000   0.3395
   0.800   1.8956   0.11302   0.10813  -0.2008  0.1743  0.5301  -2.9623   0.0000   0.3378
   1.000   1.9099   0.11331   0.10843  -0.1998  0.1722  0.5324  -3.0113   0.0000   0.3361
   1.200   1.9240   0.11360   0.10872  -0.1987  0.1700  0.5347  -3.0603   0.0000   0.3344
   1.400   1.9377   0.11391   0.10902  -0.1976  0.1669  0.5369  -3.1090   0.0000   0.3327
   1.600   1.9509   0.11425   0.10934  -0.1965  0.1631  0.5389  -3.1584   0.0000   0.3311
   1.800   1.9646   0.11460   0.10967  -0.1954  0.1600  0.5410  -3.2110   0.0000   0.3295
   2.000   1.9788   0.11495   0.11003  -0.1943  0.1577  0.5429  -3.2649   0.0000   0.3278
   2.200   1.9926   0.11536   0.11043  -0.1933  0.1542  0.5444  -3.3186   0.0000   0.3263
   2.400   2.0042   0.11569   0.11073  -0.1920  0.1496  0.5467  -3.3689   0.0000   0.3247
   2.600   2.0164   0.11603   0.11107  -0.1907  0.1466  0.5492  -3.4274   0.0000   0.3231
   2.800   2.0279   0.11644   0.11148  -0.1894  0.1435  0.5514  -3.4851   0.0000   0.3215
   3.000   2.0383   0.11691   0.11193  -0.1881  0.1396  0.5534  -3.5412   0.0000   0.3199
   3.200   2.0491   0.11735   0.11235  -0.1867  0.1361  0.5554  -3.5980   0.0000   0.3184
   3.400   2.0606   0.11774   0.11276  -0.1854  0.1336  0.5575  -3.6578   0.0000   0.3169
   3.600   2.0718   0.11817   0.11318  -0.1841  0.1303  0.5597  -3.7224   0.0000   0.3153
   3.800   2.0824   0.11866   0.11363  -0.1828  0.1260  0.5618  -3.7859   0.0000   0.3138
   4.000   2.0940   0.11909   0.11406  -0.1816  0.1230  0.5636  -3.8540   0.0000   0.3123
   4.200   2.1048   0.11957   0.11453  -0.1803  0.1193  0.5650  -3.9233   0.0000   0.3109
   4.400   2.1152   0.12008   0.11501  -0.1790  0.1155  0.5661  -3.9934   0.0000   0.3094
   4.600   2.1250   0.12040   0.11535  -0.1776  0.1132  0.5681  -4.0631   0.0000   0.3079
   4.800   2.1343   0.12082   0.11577  -0.1761  0.1098  0.5701  -4.1319   0.0000   0.3064
   5.000   2.1420   0.12137   0.11630  -0.1746  0.1060  0.5719  -4.1977   0.0000   0.3050
   5.200   2.1496   0.12198   0.11691  -0.1731  0.1029  0.5737  -4.2683   0.0000   0.3035
   5.400   2.1563   0.12264   0.11756  -0.1715  0.0990  0.5755  -4.3390   0.0000   0.3020
   5.600   2.1642   0.12321   0.11813  -0.1700  0.0960  0.5775  -4.4135   0.0000   0.3006
   5.800   2.1727   0.12376   0.11868  -0.1686  0.0931  0.5796  -4.4898   0.0000   0.2992
   6.000   2.1798   0.12443   0.11933  -0.1672  0.0894  0.5815  -4.5632   0.0000   0.2978
   6.200   2.1882   0.12503   0.11993  -0.1658  0.0864  0.5832  -4.6451   0.0000   0.2964
   6.400   2.1950   0.12580   0.12069  -0.1644  0.0829  0.5846  -4.7236   0.0000   0.2950
   6.600   2.2009   0.12671   0.12160  -0.1630  0.0801  0.5859  -4.8002   0.0000   0.2936
   6.800   2.2073   0.12754   0.12244  -0.1616  0.0773  0.5869  -4.8788   0.0000   0.2923
   7.000   2.2123   0.12837   0.12326  -0.1601  0.0742  0.5880  -4.9531   0.0000   0.2909
   7.200   2.2179   0.12897   0.12387  -0.1586  0.0718  0.5896  -5.0290   0.0000   0.2895
   7.400   2.2217   0.12975   0.12465  -0.1570  0.0688  0.5913  -5.1002   0.0000   0.2882
   7.600   2.2239   0.13074   0.12565  -0.1554  0.0664  0.5930  -5.1672   0.0000   0.2868
   7.800   2.2275   0.13158   0.12651  -0.1539  0.0640  0.5946  -5.2382   0.0000   0.2855
   8.000   2.2303   0.13249   0.12742  -0.1525  0.0615  0.5962  -5.3073   0.0000   0.2842
   8.200   2.2339   0.13336   0.12832  -0.1511  0.0596  0.5976  -5.3790   0.0000   0.2829
   8.400   2.2359   0.13444   0.12942  -0.1497  0.0576  0.5990  -5.4460   0.0000   0.2816
   8.600   2.2380   0.13549   0.13047  -0.1483  0.0556  0.6003  -5.5137   0.0000   0.2804
   8.800   2.2414   0.13646   0.13146  -0.1471  0.0540  0.6017  -5.5854   0.0000   0.2791
   9.000   2.2430   0.13763   0.13266  -0.1459  0.0522  0.6030  -5.6519   0.0000   0.2779
   9.200   2.2439   0.13888   0.13392  -0.1448  0.0503  0.6043  -5.7159   0.0000   0.2768
   9.400   2.2454   0.14010   0.13517  -0.1437  0.0487  0.6055  -5.7823   0.0000   0.2756
   9.600   2.2461   0.14140   0.13649  -0.1427  0.0468  0.6065  -5.8467   0.0000   0.2745
   9.800   2.2455   0.14285   0.13796  -0.1418  0.0450  0.6075  -5.9106   0.0000   0.2735
  10.000   2.2468   0.14416   0.13930  -0.1410  0.0435  0.6084  -5.9810   0.0000   0.2724
  10.200   2.2453   0.14550   0.14067  -0.1401  0.0419  0.6097  -6.0411   0.0000   0.2714
  10.400   2.2423   0.14694   0.14215  -0.1393  0.0405  0.6110  -6.0956   0.0000   0.2704
  10.600   2.2418   0.14812   0.14336  -0.1385  0.0394  0.6123  -6.1592   0.0000   0.2694
  10.800   2.2393   0.14954   0.14482  -0.1379  0.0383  0.6134  -6.2197   0.0000   0.2685
  11.000   2.2371   0.15092   0.14623  -0.1374  0.0371  0.6145  -6.2811   0.0000   0.2676
  11.200   2.2337   0.15247   0.14783  -0.1370  0.0361  0.6154  -6.3371   0.0000   0.2668
  11.400   2.2327   0.15373   0.14912  -0.1365  0.0352  0.6164  -6.4030   0.0000   0.2659
  11.600   2.2288   0.15534   0.15078  -0.1364  0.0342  0.6174  -6.4567   0.0000   0.2652
  11.800   2.2254   0.15688   0.15236  -0.1363  0.0332  0.6183  -6.5122   0.0000   0.2645
  12.000   2.2212   0.15855   0.15407  -0.1364  0.0323  0.6193  -6.5636   0.0000   0.2639
  12.200   2.2185   0.16004   0.15561  -0.1364  0.0315  0.6203  -6.6216   0.0000   0.2632
  12.400   2.2151   0.16163   0.15725  -0.1366  0.0307  0.6214  -6.6758   0.0000   0.2626
  12.600   2.2101   0.16343   0.15909  -0.1371  0.0298  0.6225  -6.7228   0.0000   0.2622
  12.800   2.2059   0.16516   0.16086  -0.1376  0.0290  0.6237  -6.7722   0.0000   0.2617
  13.000   2.2014   0.16695   0.16271  -0.1383  0.0283  0.6249  -6.8204   0.0000   0.2613
  13.200   2.1983   0.16862   0.16442  -0.1390  0.0274  0.6262  -6.8744   0.0000   0.2609
  13.400   2.1922   0.17064   0.16649  -0.1401  0.0266  0.6273  -6.9138   0.0000   0.2607
  13.600   2.1853   0.17274   0.16864  -0.1413  0.0258  0.6281  -6.9487   0.0000   0.2606
  13.800   2.1814   0.17449   0.17044  -0.1423  0.0251  0.6289  -6.9972   0.0000   0.2603
  14.000   2.1751   0.17651   0.17252  -0.1436  0.0245  0.6295  -7.0332   0.0000   0.2602
  14.200   2.1694   0.17824   0.17429  -0.1447  0.0238  0.6303  -7.0719   0.0000   0.2600
  14.400   2.1610   0.18033   0.17644  -0.1462  0.0232  0.6310  -7.0960   0.0000   0.2600
  14.600   2.1527   0.18240   0.17857  -0.1478  0.0227  0.6317  -7.1199   0.0000   0.2601
  14.800   2.1470   0.18414   0.18037  -0.1491  0.0223  0.6325  -7.1567   0.0000   0.2599
  15.000   2.1397   0.18612   0.18240  -0.1507  0.0219  0.6332  -7.1837   0.0000   0.2600
  15.200   2.1343   0.18785   0.18418  -0.1521  0.0215  0.6339  -7.2201   0.0000   0.2599
  15.400   2.1259   0.18996   0.18636  -0.1540  0.0210  0.6345  -7.2402   0.0000   0.2601
  15.600   2.1198   0.19179   0.18824  -0.1555  0.0205  0.6352  -7.2715   0.0000   0.2601
  15.800   2.1104   0.19406   0.19057  -0.1578  0.0201  0.6358  -7.2838   0.0000   0.2605
  16.000   2.1044   0.19589   0.19244  -0.1594  0.0197  0.6365  -7.3142   0.0000   0.2605
  16.200   2.0963   0.19800   0.19461  -0.1616  0.0194  0.6371  -7.3318   0.0000   0.2608
  16.400   2.0915   0.19967   0.19633  -0.1632  0.0190  0.6379  -7.3677   0.0000   0.2608
  16.600   2.0834   0.20181   0.19853  -0.1654  0.0186  0.6385  -7.3834   0.0000   0.2612
  16.800   2.0778   0.20361   0.20037  -0.1672  0.0182  0.6394  -7.4130   0.0000   0.2613
  17.000   2.0706   0.20563   0.20244  -0.1694  0.0178  0.6402  -7.4323   0.0000   0.2616
  17.200   2.0632   0.20770   0.20456  -0.1717  0.0174  0.6411  -7.4492   0.0000   0.2620
  17.400   2.0586   0.20940   0.20630  -0.1735  0.0171  0.6422  -7.4827   0.0000   0.2620
  17.600   2.0511   0.21153   0.20848  -0.1760  0.0168  0.6432  -7.4968   0.0000   0.2625
  17.800   2.0472   0.21315   0.21014  -0.1778  0.0165  0.6444  -7.5334   0.0000   0.2625
  18.000   2.0430   0.21483   0.21186  -0.1797  0.0161  0.6454  -7.5672   0.0000   0.2626
  18.200   2.0356   0.21697   0.21405  -0.1824  0.0158  0.6463  -7.5792   0.0000   0.2631
  18.400   2.0316   0.21864   0.21576  -0.1844  0.0154  0.6472  -7.6129   0.0000   0.2632
  18.600   2.0253   0.22066   0.21782  -0.1869  0.0151  0.6480  -7.6329   0.0000   0.2637
  18.800   2.0198   0.22266   0.21986  -0.1893  0.0148  0.6488  -7.6588   0.0000   0.2640


