xflr5 v6.47

 Calculated polar for: NACA24018_theta30_Ku4.5_Kl0.5_d0.00_delta0.00

 1 1 Reynolds number fixed          Mach number fixed         

 xtrf =   1.000 (top)        1.000 (bottom)
 Mach =   0.000     Re =     0.600 e 6     Ncrit =   5.000

  alpha     CL        CD       CDp       Cm    Top Xtr Bot Xtr   Cpmin    Chinge    XCp    
 ------- -------- --------- --------- -------- ------- ------- -------- --------- ---------
 -15.000  -1.0947   0.03185   0.02600  -0.0697  1.0000  0.0285  -6.9164   0.0000   0.1626
 -14.800  -1.0891   0.03085   0.02494  -0.0687  1.0000  0.0288  -6.8288   0.0000   0.1636
 -14.600  -1.0832   0.02990   0.02395  -0.0676  1.0000  0.0290  -6.7405   0.0000   0.1646
 -14.400  -1.0772   0.02900   0.02300  -0.0664  1.0000  0.0293  -6.6513   0.0000   0.1658
 -14.200  -1.0710   0.02816   0.02211  -0.0651  1.0000  0.0296  -6.5616   0.0000   0.1670
 -14.000  -1.0652   0.02734   0.02125  -0.0637  1.0000  0.0298  -6.4733   0.0000   0.1684
 -13.800  -1.0609   0.02648   0.02037  -0.0620  1.0000  0.0301  -6.3903   0.0000   0.1701
 -13.600  -1.0559   0.02571   0.01958  -0.0603  1.0000  0.0304  -6.3037   0.0000   0.1718
 -13.400  -1.0504   0.02502   0.01887  -0.0585  1.0000  0.0306  -6.2152   0.0000   0.1736
 -13.200  -1.0449   0.02439   0.01821  -0.0566  1.0000  0.0309  -6.1262   0.0000   0.1755
 -13.000  -1.0394   0.02380   0.01761  -0.0546  1.0000  0.0312  -6.0375   0.0000   0.1775
 -12.800  -1.0341   0.02326   0.01704  -0.0524  1.0000  0.0315  -5.9499   0.0000   0.1797
 -12.600  -1.0293   0.02276   0.01651  -0.0501  1.0000  0.0319  -5.8661   0.0000   0.1821
 -12.400  -1.0252   0.02230   0.01602  -0.0475  1.0000  0.0322  -5.7859   0.0000   0.1847
 -12.200  -1.0218   0.02187   0.01557  -0.0448  1.0000  0.0326  -5.7085   0.0000   0.1876
 -12.000  -1.0022   0.02136   0.01501  -0.0450  0.9988  0.0331  -5.5797   0.0000   0.1867
 -11.800  -0.9802   0.02082   0.01445  -0.0458  0.9968  0.0336  -5.4443   0.0000   0.1852
 -11.600  -0.9599   0.02026   0.01389  -0.0462  0.9943  0.0341  -5.3143   0.0000   0.1839
 -11.400  -0.9393   0.01976   0.01338  -0.0466  0.9917  0.0347  -5.1842   0.0000   0.1827
 -11.200  -0.9174   0.01929   0.01291  -0.0471  0.9892  0.0353  -5.0516   0.0000   0.1811
 -11.000  -0.8948   0.01886   0.01245  -0.0478  0.9871  0.0359  -4.9182   0.0000   0.1792
 -10.800  -0.8751   0.01843   0.01200  -0.0478  0.9830  0.0366  -4.7950   0.0000   0.1782
 -10.600  -0.8525   0.01802   0.01156  -0.0483  0.9801  0.0372  -4.6647   0.0000   0.1763
 -10.400  -0.8322   0.01760   0.01112  -0.0484  0.9763  0.0378  -4.5421   0.0000   0.1750
 -10.200  -0.8115   0.01717   0.01071  -0.0485  0.9721  0.0385  -4.4208   0.0000   0.1735
 -10.000  -0.7878   0.01678   0.01031  -0.0491  0.9695  0.0394  -4.2944   0.0000   0.1710
  -9.800  -0.7680   0.01643   0.00995  -0.0490  0.9637  0.0402  -4.1800   0.0000   0.1697
  -9.600  -0.7426   0.01608   0.00957  -0.0499  0.9602  0.0411  -4.0525   0.0000   0.1664
  -9.400  -0.7181   0.01573   0.00921  -0.0506  0.9555  0.0420  -3.9290   0.0000   0.1632
  -9.200  -0.6911   0.01532   0.00881  -0.0519  0.9506  0.0429  -3.7996   0.0000   0.1585
  -9.000  -0.6624   0.01496   0.00845  -0.0535  0.9458  0.0440  -3.6674   0.0000   0.1529
  -8.800  -0.6352   0.01463   0.00811  -0.0547  0.9389  0.0453  -3.5404   0.0000   0.1475
  -8.600  -0.6064   0.01432   0.00777  -0.0562  0.9319  0.0465  -3.4121   0.0000   0.1408
  -8.400  -0.5777   0.01396   0.00741  -0.0578  0.9231  0.0478  -3.2898   0.0000   0.1333
  -8.200  -0.5512   0.01366   0.00709  -0.0588  0.9110  0.0492  -3.1742   0.0000   0.1266
  -8.000  -0.5257   0.01341   0.00679  -0.0596  0.8960  0.0507  -3.0624   0.0000   0.1199
  -7.800  -0.5041   0.01320   0.00651  -0.0595  0.8780  0.0520  -2.9608   0.0000   0.1151
  -7.600  -0.4864   0.01299   0.00625  -0.0586  0.8586  0.0534  -2.8689   0.0000   0.1127
  -7.400  -0.4702   0.01283   0.00602  -0.0574  0.8396  0.0549  -2.7811   0.0000   0.1113
  -7.200  -0.4551   0.01270   0.00582  -0.0559  0.8219  0.0564  -2.6968   0.0000   0.1106
  -7.000  -0.4405   0.01259   0.00563  -0.0542  0.8050  0.0577  -2.6148   0.0000   0.1103
  -6.800  -0.4272   0.01246   0.00544  -0.0524  0.7883  0.0593  -2.5362   0.0000   0.1110
  -6.600  -0.4137   0.01236   0.00529  -0.0505  0.7721  0.0610  -2.4610   0.0000   0.1116
  -6.400  -0.3999   0.01229   0.00515  -0.0487  0.7561  0.0629  -2.3861   0.0000   0.1120
  -6.200  -0.3861   0.01221   0.00501  -0.0469  0.7403  0.0647  -2.3119   0.0000   0.1124
  -6.000  -0.3718   0.01211   0.00486  -0.0452  0.7249  0.0668  -2.2374   0.0000   0.1124
  -5.800  -0.3566   0.01203   0.00473  -0.0437  0.7096  0.0690  -2.1618   0.0000   0.1115
  -5.600  -0.3410   0.01196   0.00460  -0.0422  0.6945  0.0712  -2.0863   0.0000   0.1101
  -5.400  -0.3257   0.01186   0.00446  -0.0407  0.6800  0.0739  -2.0128   0.0000   0.1089
  -5.200  -0.3098   0.01179   0.00434  -0.0394  0.6654  0.0769  -1.9416   0.0000   0.1069
  -5.000  -0.2938   0.01172   0.00423  -0.0380  0.6507  0.0798  -1.8710   0.0000   0.1046
  -4.800  -0.2778   0.01164   0.00411  -0.0366  0.6365  0.0834  -1.8011   0.0000   0.1019
  -4.600  -0.2610   0.01159   0.00401  -0.0354  0.6233  0.0870  -1.7308   0.0000   0.0979
  -4.400  -0.2447   0.01150   0.00390  -0.0341  0.6106  0.0914  -1.6651   0.0000   0.0940
  -4.200  -0.2278   0.01145   0.00380  -0.0329  0.5974  0.0960  -1.5992   0.0000   0.0887
  -4.000  -0.2114   0.01137   0.00370  -0.0317  0.5841  0.1014  -1.5348   0.0000   0.0833
  -3.800  -0.1946   0.01132   0.00362  -0.0305  0.5700  0.1072  -1.4704   0.0000   0.0761
  -3.600  -0.1781   0.01125   0.00352  -0.0292  0.5561  0.1145  -1.4073   0.0000   0.0683
  -3.400  -0.1614   0.01118   0.00344  -0.0280  0.5426  0.1225  -1.3465   0.0000   0.0585
  -3.200  -0.1446   0.01111   0.00336  -0.0268  0.5295  0.1320  -1.2874   0.0000   0.0460
  -3.000  -0.1279   0.01103   0.00327  -0.0256  0.5171  0.1441  -1.2291   0.0000   0.0304
  -2.800  -0.1115   0.01092   0.00319  -0.0244  0.5058  0.1599  -1.1718   0.0000   0.0108
  -2.400  -0.0810   0.01059   0.00299  -0.0215  0.4842  0.2139  -1.0647   0.0000  -0.0385
  -2.200  -0.0693   0.01023   0.00284  -0.0195  0.4734  0.2750  -1.0189   0.0000  -0.0551
  -2.000  -0.0577   0.00990   0.00273  -0.0174  0.4630  0.3417  -0.9735   0.0000  -0.0768
  -1.800  -0.0439   0.00971   0.00267  -0.0156  0.4526  0.3872  -0.9254   0.0000  -0.1358
  -1.600  -0.0288   0.00959   0.00263  -0.0141  0.4423  0.4228  -0.8784   0.0000  -0.2783
  -1.400  -0.0133   0.00947   0.00259  -0.0127  0.4330  0.4549  -0.8314   0.0000  -0.7684
  -1.200   0.0026   0.00939   0.00257  -0.0113  0.4238  0.4823  -0.7851   0.0000   4.7632
  -1.000   0.0190   0.00934   0.00256  -0.0100  0.4141  0.5055  -0.7816   0.0000   0.7981
  -0.800   0.0361   0.00931   0.00255  -0.0088  0.4052  0.5258  -0.8021   0.0000   0.5005
  -0.600   0.0525   0.00927   0.00255  -0.0075  0.3967  0.5470  -0.8229   0.0000   0.3932
  -0.400   0.0698   0.00924   0.00255  -0.0063  0.3889  0.5672  -0.8447   0.0000   0.3382
  -0.200   0.0868   0.00923   0.00255  -0.0051  0.3816  0.5850  -0.8664   0.0000   0.3047
   0.000   0.1039   0.00920   0.00256  -0.0039  0.3740  0.6035  -0.8882   0.0000   0.2822
   0.200   0.1206   0.00919   0.00258  -0.0027  0.3671  0.6234  -0.9098   0.0000   0.2653
   0.400   0.1378   0.00918   0.00260  -0.0015  0.3603  0.6429  -0.9319   0.0000   0.2533
   0.600   0.1541   0.00917   0.00263  -0.0001  0.3544  0.6627  -0.9543   0.0000   0.2426
   0.800   0.1710   0.00914   0.00266   0.0011  0.3491  0.6839  -0.9775   0.0000   0.2347
   1.000   0.1882   0.00915   0.00269   0.0023  0.3434  0.7015  -1.0009   0.0000   0.2286
   1.200   0.2062   0.00917   0.00273   0.0033  0.3383  0.7134  -1.0249   0.0000   0.2245
   1.400   0.2248   0.00920   0.00276   0.0042  0.3329  0.7241  -1.0495   0.0000   0.2216
   1.600   0.2430   0.00924   0.00280   0.0052  0.3279  0.7350  -1.0738   0.0000   0.2188
   1.800   0.2615   0.00928   0.00285   0.0061  0.3238  0.7462  -1.0986   0.0000   0.2167
   2.000   0.2801   0.00930   0.00289   0.0070  0.3196  0.7569  -1.1246   0.0000   0.2148
   2.200   0.2983   0.00935   0.00295   0.0079  0.3151  0.7678  -1.1505   0.0000   0.2130
   2.400   0.3165   0.00940   0.00300   0.0089  0.3112  0.7791  -1.1765   0.0000   0.2113
   2.600   0.3352   0.00944   0.00306   0.0097  0.3072  0.7908  -1.2035   0.0000   0.2101
   2.800   0.3537   0.00948   0.00313   0.0106  0.3034  0.8021  -1.2312   0.0000   0.2090
   3.000   0.3720   0.00955   0.00320   0.0115  0.2999  0.8131  -1.2589   0.0000   0.2078
   3.200   0.3907   0.00960   0.00328   0.0123  0.2968  0.8241  -1.2870   0.0000   0.2070
   3.400   0.4098   0.00965   0.00335   0.0131  0.2933  0.8353  -1.3156   0.0000   0.2065
   3.600   0.4292   0.00972   0.00344   0.0137  0.2896  0.8460  -1.3446   0.0000   0.2062
   3.800   0.4485   0.00981   0.00353   0.0144  0.2861  0.8565  -1.3748   0.0000   0.2059
   4.000   0.4682   0.00989   0.00363   0.0150  0.2832  0.8670  -1.4057   0.0000   0.2059
   4.200   0.4887   0.00997   0.00372   0.0154  0.2800  0.8775  -1.4374   0.0000   0.2062
   4.400   0.5104   0.01006   0.00383   0.0156  0.2765  0.8869  -1.4702   0.0000   0.2071
   4.600   0.5314   0.01018   0.00395   0.0158  0.2731  0.8964  -1.5027   0.0000   0.2077
   4.800   0.5533   0.01030   0.00408   0.0159  0.2702  0.9057  -1.5363   0.0000   0.2086
   5.000   0.5790   0.01042   0.00421   0.0152  0.2674  0.9131  -1.5748   0.0000   0.2110
   5.200   0.6015   0.01055   0.00434   0.0151  0.2642  0.9213  -1.6106   0.0000   0.2120
   5.400   0.6291   0.01072   0.00451   0.0139  0.2606  0.9268  -1.6513   0.0000   0.2149
   5.600   0.6513   0.01090   0.00466   0.0138  0.2575  0.9341  -1.6873   0.0000   0.2156
   5.800   0.6811   0.01106   0.00483   0.0122  0.2547  0.9379  -1.7305   0.0000   0.2189
   6.000   0.7073   0.01122   0.00499   0.0113  0.2517  0.9429  -1.7724   0.0000   0.2207
   6.200   0.7322   0.01140   0.00516   0.0106  0.2485  0.9477  -1.8147   0.0000   0.2219
   6.400   0.7601   0.01162   0.00535   0.0093  0.2451  0.9507  -1.8607   0.0000   0.2241
   6.600   0.7860   0.01179   0.00552   0.0084  0.2424  0.9546  -1.9050   0.0000   0.2255
   6.800   0.8100   0.01195   0.00569   0.0079  0.2397  0.9588  -1.9476   0.0000   0.2262
   7.000   0.8374   0.01215   0.00588   0.0067  0.2364  0.9609  -1.9940   0.0000   0.2278
   7.200   0.8617   0.01236   0.00608   0.0061  0.2333  0.9641  -2.0377   0.0000   0.2285
   7.400   0.8816   0.01255   0.00626   0.0064  0.2306  0.9689  -2.0787   0.0000   0.2281
   7.600   0.9080   0.01274   0.00645   0.0053  0.2277  0.9706  -2.1269   0.0000   0.2292
   7.800   0.9328   0.01294   0.00666   0.0046  0.2246  0.9729  -2.1757   0.0000   0.2299
   8.000   0.9546   0.01316   0.00686   0.0045  0.2217  0.9764  -2.2214   0.0000   0.2300
   8.200   0.9764   0.01340   0.00708   0.0043  0.2191  0.9794  -2.2674   0.0000   0.2300
   8.400   1.0019   0.01358   0.00728   0.0033  0.2166  0.9812  -2.3179   0.0000   0.2308
   8.600   1.0261   0.01378   0.00749   0.0027  0.2137  0.9836  -2.3694   0.0000   0.2313
   8.800   1.0469   0.01401   0.00772   0.0027  0.2107  0.9871  -2.4170   0.0000   0.2311
   9.000   1.0717   0.01426   0.00796   0.0017  0.2076  0.9887  -2.4698   0.0000   0.2318
   9.200   1.0961   0.01449   0.00819   0.0009  0.2050  0.9906  -2.5224   0.0000   0.2323
   9.400   1.1200   0.01470   0.00842   0.0002  0.2021  0.9927  -2.5771   0.0000   0.2327
   9.600   1.1425   0.01495   0.00868  -0.0002  0.1993  0.9948  -2.6345   0.0000   0.2328
   9.800   1.1654   0.01522   0.00894  -0.0008  0.1963  0.9967  -2.6932   0.0000   0.2330
  10.000   1.1887   0.01550   0.00922  -0.0016  0.1936  0.9985  -2.7527   0.0000   0.2334
  10.200   1.2133   0.01574   0.00948  -0.0025  0.1908  0.9998  -2.8145   0.0000   0.2338
  10.400   1.2223   0.01595   0.00971  -0.0003  0.1885  1.0000  -2.8562   0.0000   0.2317
  10.600   1.2277   0.01619   0.00995   0.0025  0.1860  1.0000  -2.8964   0.0000   0.2290
  10.800   1.2330   0.01648   0.01024   0.0053  0.1836  1.0000  -2.9365   0.0000   0.2265
  11.000   1.2402   0.01676   0.01053   0.0077  0.1813  1.0000  -2.9796   0.0000   0.2242
  11.200   1.2490   0.01702   0.01081   0.0097  0.1790  1.0000  -3.0255   0.0000   0.2223
  11.400   1.2576   0.01732   0.01113   0.0118  0.1765  1.0000  -3.0712   0.0000   0.2203
  11.600   1.2657   0.01767   0.01149   0.0138  0.1740  1.0000  -3.1161   0.0000   0.2184
  11.800   1.2731   0.01809   0.01190   0.0159  0.1717  1.0000  -3.1599   0.0000   0.2165
  12.000   1.2823   0.01846   0.01230   0.0176  0.1696  1.0000  -3.2067   0.0000   0.2149
  12.200   1.2922   0.01884   0.01270   0.0192  0.1672  1.0000  -3.2584   0.0000   0.2134
  12.400   1.3012   0.01927   0.01315   0.0209  0.1642  1.0000  -3.3120   0.0000   0.2118
  12.600   1.3089   0.01980   0.01368   0.0226  0.1612  1.0000  -3.3646   0.0000   0.2102
  12.800   1.3169   0.02035   0.01423   0.0242  0.1586  1.0000  -3.4179   0.0000   0.2087
  13.000   1.3268   0.02083   0.01475   0.0255  0.1562  1.0000  -3.4753   0.0000   0.2075
  13.200   1.3359   0.02138   0.01532   0.0269  0.1538  1.0000  -3.5315   0.0000   0.2062
  13.400   1.3440   0.02201   0.01597   0.0282  0.1514  1.0000  -3.5876   0.0000   0.2050
  13.600   1.3508   0.02275   0.01672   0.0296  0.1490  1.0000  -3.6430   0.0000   0.2036
  13.800   1.3595   0.02341   0.01741   0.0307  0.1468  1.0000  -3.7044   0.0000   0.2025
  14.000   1.3681   0.02411   0.01814   0.0318  0.1441  1.0000  -3.7664   0.0000   0.2015
  14.200   1.3750   0.02494   0.01899   0.0329  0.1411  1.0000  -3.8243   0.0000   0.2004
  14.400   1.3798   0.02595   0.02001   0.0340  0.1383  1.0000  -3.8775   0.0000   0.1992
  14.600   1.3874   0.02681   0.02091   0.0349  0.1358  1.0000  -3.9385   0.0000   0.1982
  14.800   1.3942   0.02776   0.02188   0.0358  0.1330  1.0000  -3.9989   0.0000   0.1973
  15.000   1.3992   0.02886   0.02301   0.0366  0.1303  1.0000  -4.0547   0.0000   0.1964
  15.200   1.4023   0.03016   0.02433   0.0374  0.1278  1.0000  -4.1054   0.0000   0.1954
  15.400   1.4082   0.03129   0.02550   0.0381  0.1255  1.0000  -4.1644   0.0000   0.1946
  15.600   1.4131   0.03254   0.02679   0.0386  0.1229  1.0000  -4.2217   0.0000   0.1938
  15.800   1.4158   0.03400   0.02828   0.0392  0.1203  1.0000  -4.2733   0.0000   0.1930
  16.000   1.4160   0.03573   0.03004   0.0396  0.1178  1.0000  -4.3175   0.0000   0.1921
  16.200   1.4194   0.03724   0.03159   0.0400  0.1155  1.0000  -4.3711   0.0000   0.1915
  16.400   1.4213   0.03891   0.03331   0.0402  0.1130  1.0000  -4.4217   0.0000   0.1908
  16.600   1.4208   0.04087   0.03530   0.0404  0.1105  1.0000  -4.4648   0.0000   0.1902
  16.800   1.4173   0.04317   0.03764   0.0405  0.1082  1.0000  -4.4986   0.0000   0.1895
  17.000   1.4177   0.04515   0.03967   0.0405  0.1061  1.0000  -4.5436   0.0000   0.1890
  17.200   1.4162   0.04734   0.04192   0.0404  0.1038  1.0000  -4.5835   0.0000   0.1885
  17.400   1.4123   0.04985   0.04447   0.0401  0.1016  1.0000  -4.6162   0.0000   0.1880
  17.600   1.4053   0.05276   0.04742   0.0398  0.0996  1.0000  -4.6382   0.0000   0.1876
  17.800   1.4008   0.05543   0.05016   0.0393  0.0977  1.0000  -4.6678   0.0000   0.1872
  18.000   1.3962   0.05817   0.05295   0.0389  0.0957  1.0000  -4.6968   0.0000   0.1869
  18.200   1.3891   0.06124   0.05608   0.0382  0.0937  1.0000  -4.7178   0.0000   0.1866
  18.400   1.3794   0.06467   0.05957   0.0374  0.0918  1.0000  -4.7288   0.0000   0.1864
  18.600   1.3684   0.06829   0.06325   0.0365  0.0901  1.0000  -4.7345   0.0000   0.1863
  18.800   1.3615   0.07148   0.06650   0.0357  0.0883  1.0000  -4.7536   0.0000   0.1862
  19.000   1.3523   0.07500   0.07008   0.0347  0.0864  1.0000  -4.7634   0.0000   0.1861
  19.200   1.3406   0.07885   0.07400   0.0336  0.0846  1.0000  -4.7635   0.0000   0.1862
  19.400   1.3268   0.08304   0.07824   0.0323  0.0829  1.0000  -4.7546   0.0000   0.1863
  19.600   1.3168   0.08680   0.08206   0.0311  0.0814  1.0000  -4.7582   0.0000   0.1864
  19.800   1.3082   0.09038   0.08569   0.0299  0.0796  1.0000  -4.7677   0.0000   0.1866
  20.000   1.2973   0.09430   0.08968   0.0285  0.0779  1.0000  -4.7672   0.0000   0.1869
  20.200   1.2849   0.09850   0.09392   0.0270  0.0762  1.0000  -4.7594   0.0000   0.1872
  20.400   1.2719   0.10281   0.09828   0.0254  0.0746  1.0000  -4.7481   0.0000   0.1877
  20.600   1.2659   0.10614   0.10166   0.0241  0.0730  1.0000  -4.7642   0.0000   0.1881
  20.800   1.2572   0.10990   0.10548   0.0226  0.0713  1.0000  -4.7676   0.0000   0.1885
  21.000   1.2472   0.11390   0.10951   0.0210  0.0696  1.0000  -4.7646   0.0000   0.1891
  21.200   1.2371   0.11792   0.11357   0.0193  0.0680  1.0000  -4.7600   0.0000   0.1898
  21.400   1.2305   0.12146   0.11716   0.0177  0.0665  1.0000  -4.7690   0.0000   0.1904
  21.600   1.2257   0.12474   0.12048   0.0162  0.0649  1.0000  -4.7848   0.0000   0.1910
  21.800   1.2179   0.12851   0.12429   0.0144  0.0634  1.0000  -4.7862   0.0000   0.1918
  22.000   1.2107   0.13221   0.12802   0.0126  0.0618  1.0000  -4.7891   0.0000   0.1927
  22.200   1.2046   0.13578   0.13162   0.0108  0.0605  1.0000  -4.7954   0.0000   0.1935
  22.400   1.2022   0.13875   0.13464   0.0093  0.0590  1.0000  -4.8185   0.0000   0.1942
  22.600   1.1972   0.14217   0.13809   0.0075  0.0575  1.0000  -4.8279   0.0000   0.1951
  22.800   1.1920   0.14562   0.14157   0.0056  0.0561  1.0000  -4.8352   0.0000   0.1961
  23.000   1.1870   0.14908   0.14505   0.0036  0.0548  1.0000  -4.8424   0.0000   0.1971
  23.200   1.1856   0.15196   0.14797   0.0020  0.0535  1.0000  -4.8680   0.0000   0.1980
  23.400   1.1840   0.15488   0.15092   0.0002  0.0521  1.0000  -4.8920   0.0000   0.1988
  23.600   1.1796   0.15829   0.15435  -0.0018  0.0508  1.0000  -4.9006   0.0000   0.2000
  23.800   1.1758   0.16160   0.15768  -0.0039  0.0495  1.0000  -4.9110   0.0000   0.2011
  24.000   1.1761   0.16423   0.16035  -0.0056  0.0484  1.0000  -4.9422   0.0000   0.2020
  24.200   1.1741   0.16725   0.16341  -0.0075  0.0472  1.0000  -4.9602   0.0000   0.2030
  24.400   1.1724   0.17020   0.16638  -0.0095  0.0460  1.0000  -4.9814   0.0000   0.2041
  24.600   1.1700   0.17332   0.16951  -0.0115  0.0448  1.0000  -4.9970   0.0000   0.2053
  24.800   1.1684   0.17627   0.17249  -0.0136  0.0438  1.0000  -5.0167   0.0000   0.2065
  25.000   1.1690   0.17887   0.17513  -0.0154  0.0428  1.0000  -5.0480   0.0000   0.2074


