xflr5 v6.47

 Calculated polar for: NACA24018_theta30_Ku4.5_Kl0.5_d0.14_delta3.44

 1 1 Reynolds number fixed          Mach number fixed         

 xtrf =   1.000 (top)        1.000 (bottom)
 Mach =   0.000     Re =     0.400 e 6     Ncrit =   5.000

  alpha     CL        CD       CDp       Cm    Top Xtr Bot Xtr   Cpmin    Chinge    XCp    
 ------- -------- --------- --------- -------- ------- ------- -------- --------- ---------
 -15.000  -0.8870   0.04410   0.03833  -0.0830  0.9771  0.0367  -5.9581   0.0000   0.1312
 -14.800  -0.8807   0.04316   0.03732  -0.0827  0.9767  0.0371  -5.8786   0.0000   0.1313
 -14.600  -0.8725   0.04241   0.03651  -0.0825  0.9762  0.0375  -5.7927   0.0000   0.1310
 -14.200  -0.8718   0.04016   0.03419  -0.0791  0.9750  0.0381  -5.6711   0.0000   0.1358
 -14.000  -0.8689   0.03904   0.03307  -0.0778  0.9732  0.0384  -5.6007   0.0000   0.1374
 -13.800  -0.8594   0.03833   0.03233  -0.0776  0.9718  0.0388  -5.5105   0.0000   0.1370
 -13.600  -0.8464   0.03795   0.03192  -0.0778  0.9710  0.0393  -5.4088   0.0000   0.1356
 -12.800  -0.8107   0.03442   0.02823  -0.0746  0.9565  0.0413  -5.0627   0.0000   0.1369
 -12.600  -0.7943   0.03386   0.02760  -0.0749  0.9542  0.0419  -4.9546   0.0000   0.1348
 -12.400  -0.7855   0.03288   0.02661  -0.0739  0.9490  0.0424  -4.8692   0.0000   0.1354
 -12.200  -0.7764   0.03208   0.02580  -0.0730  0.9451  0.0429  -4.7820   0.0000   0.1359
 -12.000  -0.7662   0.03140   0.02509  -0.0720  0.9419  0.0434  -4.6913   0.0000   0.1361
 -11.800  -0.7589   0.03063   0.02430  -0.0705  0.9376  0.0440  -4.6099   0.0000   0.1376
 -11.600  -0.7431   0.03001   0.02365  -0.0703  0.9351  0.0448  -4.5072   0.0000   0.1361
 -11.400  -0.7277   0.02937   0.02297  -0.0700  0.9323  0.0456  -4.4080   0.0000   0.1348
 -11.200  -0.7128   0.02870   0.02226  -0.0695  0.9287  0.0463  -4.3116   0.0000   0.1337
 -11.000  -0.6928   0.02809   0.02164  -0.0699  0.9271  0.0471  -4.2005   0.0000   0.1303
 -10.800  -0.6793   0.02737   0.02092  -0.0692  0.9228  0.0478  -4.1072   0.0000   0.1296
 -10.600  -0.6589   0.02680   0.02034  -0.0695  0.9205  0.0487  -3.9957   0.0000   0.1261
 -10.400  -0.6356   0.02630   0.01982  -0.0703  0.9192  0.0498  -3.8777   0.0000   0.1210
 -10.200  -0.6214   0.02566   0.01916  -0.0694  0.9138  0.0507  -3.7856   0.0000   0.1200
 -10.000  -0.5983   0.02515   0.01863  -0.0701  0.9118  0.0519  -3.6706   0.0000   0.1146
  -9.800  -0.5831   0.02452   0.01802  -0.0694  0.9060  0.0528  -3.5763   0.0000   0.1128
  -9.600  -0.5602   0.02403   0.01752  -0.0700  0.9031  0.0541  -3.4623   0.0000   0.1068
  -9.200  -0.5252   0.02310   0.01657  -0.0691  0.8901  0.0565  -3.2680   0.0000   0.1003
  -9.000  -0.5024   0.02264   0.01612  -0.0697  0.8856  0.0579  -3.1585   0.0000   0.0932
  -8.800  -0.4784   0.02223   0.01573  -0.0703  0.8816  0.0594  -3.0512   0.0000   0.0847
  -8.600  -0.4547   0.02187   0.01535  -0.0708  0.8766  0.0612  -2.9464   0.0000   0.0757
  -8.400  -0.4279   0.02147   0.01494  -0.0719  0.8736  0.0631  -2.8361   0.0000   0.0632
  -8.200  -0.4038   0.02110   0.01460  -0.0725  0.8676  0.0649  -2.7324   0.0000   0.0513
  -8.000  -0.3769   0.02071   0.01421  -0.0735  0.8626  0.0672  -2.6236   0.0000   0.0353
  -7.800  -0.3502   0.02035   0.01384  -0.0744  0.8567  0.0695  -2.5197   0.0000   0.0171
  -7.600  -0.3218   0.01995   0.01346  -0.0757  0.8507  0.0721  -2.4152   0.0000  -0.0064
  -7.400  -0.2915   0.01954   0.01304  -0.0772  0.8458  0.0751  -2.3085   0.0000  -0.0373
  -7.200  -0.2616   0.01916   0.01267  -0.0787  0.8387  0.0780  -2.2045   0.0000  -0.0746
  -7.000  -0.2271   0.01867   0.01218  -0.0810  0.8334  0.0819  -2.0920   0.0000  -0.1328
  -6.800  -0.1929   0.01822   0.01173  -0.0833  0.8251  0.0860  -1.9825   0.0000  -0.2105
  -6.600  -0.1541   0.01765   0.01116  -0.0863  0.8179  0.0913  -1.8697   0.0000  -0.3443
  -6.400  -0.1152   0.01713   0.01063  -0.0895  0.8077  0.0972  -1.7602   0.0000  -0.5695
  -6.200  -0.0732   0.01655   0.01002  -0.0931  0.7960  0.1042  -1.6472   0.0000  -1.0861
  -6.000  -0.0299   0.01598   0.00941  -0.0971  0.7801  0.1128  -1.5342   0.0000  -3.1493
  -5.800   0.0098   0.01555   0.00892  -0.1004  0.7604  0.1229  -1.4345   0.0000  10.9130
  -5.600   0.0458   0.01523   0.00855  -0.1031  0.7388  0.1348  -1.3424   0.0000   2.5867
  -5.200   0.1072   0.01491   0.00815  -0.1067  0.6926  0.1677  -1.1847   0.0000   1.2776
  -5.000   0.1368   0.01482   0.00806  -0.1084  0.6702  0.1949  -1.1105   0.0000   1.0658
  -4.800   0.1713   0.01468   0.00802  -0.1112  0.6477  0.2469  -1.0304   0.0000   0.9165
  -4.600   0.2204   0.01451   0.00814  -0.1173  0.6226  0.3579  -0.9315   0.0000   0.7945
  -4.400   0.2596   0.01458   0.00829  -0.1210  0.5997  0.4144  -0.8528   0.0000   0.7254
  -4.200   0.2918   0.01470   0.00841  -0.1230  0.5802  0.4462  -0.8178   0.0000   0.6792
  -4.000   0.3223   0.01485   0.00853  -0.1247  0.5615  0.4702  -0.8466   0.0000   0.6431
  -3.800   0.3510   0.01501   0.00865  -0.1260  0.5429  0.4903  -0.8744   0.0000   0.6139
  -3.600   0.3799   0.01519   0.00878  -0.1273  0.5244  0.5108  -0.9025   0.0000   0.5891
  -3.400   0.4087   0.01538   0.00893  -0.1286  0.5063  0.5304  -0.9320   0.0000   0.5677
  -3.000   0.4634   0.01576   0.00922  -0.1306  0.4738  0.5618  -0.9922   0.0000   0.5333
  -2.800   0.4901   0.01596   0.00938  -0.1314  0.4592  0.5762  -1.0220   0.0000   0.5191
  -2.600   0.5164   0.01616   0.00955  -0.1322  0.4463  0.5906  -1.0519   0.0000   0.5063
  -2.400   0.5429   0.01636   0.00972  -0.1329  0.4339  0.6051  -1.0820   0.0000   0.4947
  -2.200   0.5692   0.01655   0.00986  -0.1337  0.4228  0.6159  -1.1120   0.0000   0.4842
  -2.000   0.5912   0.01673   0.01000  -0.1336  0.4125  0.6217  -1.1391   0.0000   0.4748
  -1.800   0.6142   0.01690   0.01013  -0.1336  0.4021  0.6278  -1.1671   0.0000   0.4661
  -1.600   0.6391   0.01710   0.01026  -0.1341  0.3924  0.6342  -1.1974   0.0000   0.4580
  -1.400   0.6599   0.01727   0.01040  -0.1338  0.3834  0.6395  -1.2253   0.0000   0.4504
  -1.200   0.6822   0.01745   0.01055  -0.1337  0.3755  0.6451  -1.2544   0.0000   0.4434
  -1.000   0.7062   0.01766   0.01070  -0.1340  0.3672  0.6508  -1.2860   0.0000   0.4368
  -0.800   0.7273   0.01784   0.01086  -0.1337  0.3604  0.6558  -1.3158   0.0000   0.4306
  -0.600   0.7482   0.01801   0.01102  -0.1334  0.3537  0.6614  -1.3457   0.0000   0.4246
  -0.400   0.7712   0.01824   0.01120  -0.1335  0.3476  0.6673  -1.3774   0.0000   0.4192
  -0.200   0.7931   0.01841   0.01137  -0.1334  0.3425  0.6725  -1.4084   0.0000   0.4139
   0.000   0.8124   0.01858   0.01154  -0.1327  0.3371  0.6777  -1.4373   0.0000   0.4088
   0.200   0.8340   0.01881   0.01174  -0.1325  0.3316  0.6832  -1.4691   0.0000   0.4041
   0.400   0.8578   0.01903   0.01194  -0.1328  0.3267  0.6885  -1.5037   0.0000   0.3997
   0.600   0.8747   0.01919   0.01211  -0.1317  0.3220  0.6928  -1.5324   0.0000   0.3951
   0.800   0.8938   0.01940   0.01231  -0.1310  0.3174  0.6975  -1.5631   0.0000   0.3909
   1.000   0.9159   0.01966   0.01253  -0.1310  0.3132  0.7027  -1.5967   0.0000   0.3870
   1.200   0.9368   0.01985   0.01273  -0.1307  0.3091  0.7073  -1.6292   0.0000   0.3832
   1.400   0.9523   0.02002   0.01292  -0.1293  0.3051  0.7115  -1.6582   0.0000   0.3793
   1.600   0.9707   0.02025   0.01314  -0.1285  0.3011  0.7163  -1.6903   0.0000   0.3756
   1.800   0.9933   0.02055   0.01340  -0.1286  0.2974  0.7213  -1.7269   0.0000   0.3724
   2.000   1.0115   0.02073   0.01361  -0.1278  0.2943  0.7252  -1.7606   0.0000   0.3690
   2.200   1.0254   0.02090   0.01381  -0.1261  0.2909  0.7288  -1.7903   0.0000   0.3654
   2.400   1.0421   0.02112   0.01404  -0.1250  0.2872  0.7329  -1.8228   0.0000   0.3621
   2.600   1.0632   0.02144   0.01432  -0.1249  0.2835  0.7374  -1.8598   0.0000   0.3593
   2.800   1.0850   0.02173   0.01461  -0.1248  0.2804  0.7414  -1.8977   0.0000   0.3566
   3.000   1.0959   0.02189   0.01481  -0.1226  0.2777  0.7442  -1.9250   0.0000   0.3531
   3.200   1.1088   0.02209   0.01505  -0.1208  0.2747  0.7474  -1.9556   0.0000   0.3499
   3.400   1.1253   0.02237   0.01533  -0.1197  0.2714  0.7511  -1.9902   0.0000   0.3471
   3.600   1.1464   0.02274   0.01567  -0.1196  0.2680  0.7552  -2.0297   0.0000   0.3448
   3.800   1.1669   0.02306   0.01600  -0.1193  0.2650  0.7589  -2.0687   0.0000   0.3424
   4.000   1.1756   0.02322   0.01621  -0.1167  0.2625  0.7613  -2.0961   0.0000   0.3392
   4.200   1.1868   0.02344   0.01646  -0.1147  0.2597  0.7639  -2.1270   0.0000   0.3362
   4.400   1.2008   0.02372   0.01675  -0.1132  0.2566  0.7669  -2.1610   0.0000   0.3336
   4.600   1.2182   0.02409   0.01711  -0.1124  0.2536  0.7702  -2.1990   0.0000   0.3313
   4.800   1.2414   0.02453   0.01755  -0.1128  0.2508  0.7739  -2.2457   0.0000   0.3296
   5.000   1.2564   0.02481   0.01787  -0.1115  0.2482  0.7764  -2.2829   0.0000   0.3272
   5.200   1.2640   0.02504   0.01814  -0.1088  0.2457  0.7783  -2.3130   0.0000   0.3243
   5.400   1.2734   0.02533   0.01845  -0.1065  0.2431  0.7803  -2.3454   0.0000   0.3215
   5.600   1.2844   0.02566   0.01880  -0.1046  0.2404  0.7826  -2.3798   0.0000   0.3190
   5.800   1.2972   0.02607   0.01921  -0.1031  0.2378  0.7850  -2.4167   0.0000   0.3167
   6.000   1.3151   0.02648   0.01965  -0.1025  0.2352  0.7879  -2.4598   0.0000   0.3149
   6.200   1.3407   0.02697   0.02017  -0.1034  0.2320  0.7913  -2.5127   0.0000   0.3137
   6.400   1.3532   0.02736   0.02059  -0.1018  0.2292  0.7932  -2.5496   0.0000   0.3116
   6.600   1.3589   0.02771   0.02096  -0.0990  0.2268  0.7946  -2.5801   0.0000   0.3089
   6.800   1.3653   0.02811   0.02137  -0.0964  0.2245  0.7961  -2.6141   0.0000   0.3063
   7.000   1.3731   0.02855   0.02184  -0.0941  0.2222  0.7978  -2.6498   0.0000   0.3039
   7.200   1.3843   0.02893   0.02228  -0.0923  0.2199  0.7996  -2.6904   0.0000   0.3018
   7.400   1.3969   0.02938   0.02276  -0.0909  0.2173  0.8017  -2.7332   0.0000   0.2998
   7.600   1.4119   0.02991   0.02332  -0.0900  0.2144  0.8041  -2.7796   0.0000   0.2982
   7.800   1.4313   0.03060   0.02401  -0.0901  0.2113  0.8068  -2.8325   0.0000   0.2970
   8.000   1.4487   0.03136   0.02477  -0.0898  0.2086  0.8092  -2.8827   0.0000   0.2957
   8.200   1.4542   0.03176   0.02524  -0.0872  0.2067  0.8102  -2.9157   0.0000   0.2933
   8.400   1.4602   0.03221   0.02575  -0.0848  0.2044  0.8113  -2.9535   0.0000   0.2911
   8.600   1.4663   0.03275   0.02633  -0.0824  0.2019  0.8125  -2.9924   0.0000   0.2889
   8.800   1.4727   0.03338   0.02699  -0.0803  0.1992  0.8138  -3.0332   0.0000   0.2869
   9.000   1.4788   0.03412   0.02775  -0.0782  0.1966  0.8153  -3.0741   0.0000   0.2849
   9.200   1.4875   0.03483   0.02849  -0.0766  0.1943  0.8169  -3.1192   0.0000   0.2831
   9.400   1.4991   0.03550   0.02923  -0.0755  0.1917  0.8188  -3.1694   0.0000   0.2816
   9.600   1.5123   0.03631   0.03008  -0.0748  0.1889  0.8208  -3.2226   0.0000   0.2803
   9.800   1.5285   0.03731   0.03111  -0.0748  0.1859  0.8231  -3.2880   0.0000   0.2794
  10.000   1.5428   0.03844   0.03225  -0.0746  0.1833  0.8250  -3.3503   0.0000   0.2784
  10.200   1.5453   0.03921   0.03308  -0.0722  0.1813  0.8259  -3.3902   0.0000   0.2764
  10.400   1.5492   0.03998   0.03391  -0.0700  0.1789  0.8268  -3.4328   0.0000   0.2745
  10.600   1.5530   0.04086   0.03485  -0.0681  0.1762  0.8278  -3.4753   0.0000   0.2728
  10.800   1.5562   0.04190   0.03593  -0.0662  0.1735  0.8289  -3.5176   0.0000   0.2711
  11.000   1.5587   0.04309   0.03714  -0.0645  0.1710  0.8301  -3.5627   0.0000   0.2695
  11.200   1.5638   0.04419   0.03830  -0.0631  0.1687  0.8315  -3.6132   0.0000   0.2680
  11.400   1.5708   0.04529   0.03946  -0.0620  0.1662  0.8330  -3.6680   0.0000   0.2667
  11.600   1.5777   0.04656   0.04079  -0.0611  0.1634  0.8344  -3.7225   0.0000   0.2656
  11.800   1.5841   0.04805   0.04231  -0.0605  0.1607  0.8359  -3.7761   0.0000   0.2646
  12.000   1.5897   0.04982   0.04412  -0.0602  0.1580  0.8372  -3.8310   0.0000   0.2638
  12.200   1.6026   0.05131   0.04567  -0.0606  0.1550  0.8389  -3.9042   0.0000   0.2633
  12.400   1.6107   0.05301   0.04744  -0.0605  0.1519  0.8402  -3.9663   0.0000   0.2626
  12.600   1.6079   0.05464   0.04911  -0.0589  0.1494  0.8410  -4.0020   0.0000   0.2612
  12.800   1.6042   0.05649   0.05100  -0.0576  0.1471  0.8417  -4.0347   0.0000   0.2600
  13.000   1.6039   0.05811   0.05269  -0.0564  0.1449  0.8425  -4.0772   0.0000   0.2588
  13.200   1.6044   0.05978   0.05444  -0.0555  0.1425  0.8433  -4.1220   0.0000   0.2578
  13.400   1.6035   0.06172   0.05644  -0.0548  0.1400  0.8441  -4.1629   0.0000   0.2569
  13.600   1.6008   0.06394   0.05872  -0.0543  0.1376  0.8449  -4.1981   0.0000   0.2561
  13.800   1.5964   0.06644   0.06126  -0.0539  0.1354  0.8458  -4.2281   0.0000   0.2554
  14.000   1.5973   0.06844   0.06335  -0.0537  0.1331  0.8469  -4.2726   0.0000   0.2548
  14.200   1.5963   0.07077   0.06575  -0.0537  0.1305  0.8479  -4.3133   0.0000   0.2543
  14.400   1.5932   0.07350   0.06854  -0.0540  0.1279  0.8489  -4.3467   0.0000   0.2540
  14.600   1.5878   0.07661   0.07170  -0.0545  0.1254  0.8497  -4.3735   0.0000   0.2539
  14.800   1.5868   0.07928   0.07445  -0.0551  0.1230  0.8506  -4.4141   0.0000   0.2537
  15.000   1.5854   0.08213   0.07737  -0.0560  0.1204  0.8514  -4.4525   0.0000   0.2537
  15.200   1.5815   0.08539   0.08070  -0.0571  0.1178  0.8522  -4.4820   0.0000   0.2540
  15.400   1.5752   0.08907   0.08444  -0.0585  0.1155  0.8529  -4.5039   0.0000   0.2544
  15.600   1.5743   0.09231   0.08776  -0.0601  0.1132  0.8538  -4.5428   0.0000   0.2549
  15.800   1.5704   0.09545   0.09097  -0.0613  0.1108  0.8545  -4.5721   0.0000   0.2551
  16.000   1.5612   0.09860   0.09419  -0.0619  0.1086  0.8550  -4.5845   0.0000   0.2552
  16.200   1.5505   0.10205   0.09770  -0.0629  0.1066  0.8554  -4.5900   0.0000   0.2555
  16.400   1.5414   0.10535   0.10106  -0.0639  0.1047  0.8559  -4.5999   0.0000   0.2558
  16.600   1.5356   0.10825   0.10404  -0.0649  0.1025  0.8564  -4.6206   0.0000   0.2560
  16.800   1.5282   0.11148   0.10734  -0.0661  0.1003  0.8569  -4.6343   0.0000   0.2565
  17.000   1.5191   0.11504   0.11095  -0.0678  0.0981  0.8574  -4.6399   0.0000   0.2572
  17.200   1.5101   0.11863   0.11459  -0.0696  0.0962  0.8579  -4.6444   0.0000   0.2580
  17.400   1.5060   0.12154   0.11757  -0.0710  0.0941  0.8584  -4.6668   0.0000   0.2585
  17.600   1.5000   0.12478   0.12087  -0.0727  0.0919  0.8590  -4.6807   0.0000   0.2593
  17.800   1.4923   0.12828   0.12442  -0.0748  0.0898  0.8595  -4.6867   0.0000   0.2602
  18.000   1.4852   0.13173   0.12790  -0.0768  0.0878  0.8602  -4.6937   0.0000   0.2613
  18.200   1.4820   0.13463   0.13087  -0.0786  0.0858  0.8609  -4.7164   0.0000   0.2619
  18.400   1.4776   0.13777   0.13406  -0.0806  0.0837  0.8617  -4.7340   0.0000   0.2629
  18.600   1.4721   0.14114   0.13747  -0.0830  0.0816  0.8624  -4.7455   0.0000   0.2640
  18.800   1.4676   0.14447   0.14083  -0.0854  0.0797  0.8632  -4.7593   0.0000   0.2652
  19.000   1.4665   0.14737   0.14380  -0.0876  0.0777  0.8639  -4.7870   0.0000   0.2661
  19.200   1.4638   0.15061   0.14708  -0.0902  0.0755  0.8646  -4.8059   0.0000   0.2673
  19.400   1.4604   0.15399   0.15048  -0.0931  0.0736  0.8652  -4.8207   0.0000   0.2688
  19.600   1.4599   0.15705   0.15359  -0.0957  0.0717  0.8659  -4.8469   0.0000   0.2699
  19.800   1.4596   0.16017   0.15676  -0.0985  0.0697  0.8665  -4.8727   0.0000   0.2712
  20.000   1.4591   0.16342   0.16004  -0.1016  0.0677  0.8672  -4.8962   0.0000   0.2726
  20.200   1.4563   0.16666   0.16329  -0.1045  0.0660  0.8677  -4.9118   0.0000   0.2741
  20.400   1.4544   0.16899   0.16569  -0.1061  0.0644  0.8681  -4.9371   0.0000   0.2746
  20.600   1.4509   0.17158   0.16832  -0.1080  0.0627  0.8686  -4.9535   0.0000   0.2755
  20.800   1.4466   0.17429   0.17105  -0.1100  0.0611  0.8691  -4.9654   0.0000   0.2764
  21.000   1.4438   0.17680   0.17356  -0.1119  0.0597  0.8697  -4.9841   0.0000   0.2773
  21.200   1.4420   0.17925   0.17608  -0.1139  0.0582  0.8703  -5.0081   0.0000   0.2780
  21.400   1.4400   0.18178   0.17865  -0.1160  0.0566  0.8709  -5.0317   0.0000   0.2789
  21.600   1.4383   0.18435   0.18124  -0.1182  0.0551  0.8715  -5.0557   0.0000   0.2799
  21.800   1.4365   0.18706   0.18396  -0.1207  0.0538  0.8721  -5.0767   0.0000   0.2810
  22.000   1.4366   0.18949   0.18645  -0.1229  0.0524  0.8726  -5.1078   0.0000   0.2819
  22.200   1.4366   0.19198   0.18897  -0.1253  0.0510  0.8732  -5.1374   0.0000   0.2828
  22.400   1.4355   0.19469   0.19170  -0.1279  0.0496  0.8737  -5.1593   0.0000   0.2840
  22.600   1.4357   0.19721   0.19423  -0.1305  0.0484  0.8743  -5.1883   0.0000   0.2851
  22.800   1.4369   0.19962   0.19670  -0.1329  0.0472  0.8749  -5.2215   0.0000   0.2860
  23.000   1.4372   0.20220   0.19932  -0.1356  0.0459  0.8755  -5.2487   0.0000   0.2871
  23.200   1.4377   0.20480   0.20194  -0.1384  0.0447  0.8762  -5.2759   0.0000   0.2882
  23.400   1.4396   0.20720   0.20434  -0.1410  0.0437  0.8770  -5.3115   0.0000   0.2892
  23.600   1.4418   0.20969   0.20689  -0.1438  0.0425  0.8778  -5.3456   0.0000   0.2902
  23.800   1.4434   0.21240   0.20964  -0.1469  0.0414  0.8785  -5.3734   0.0000   0.2915
  24.000   1.4460   0.21502   0.21228  -0.1500  0.0403  0.8792  -5.4073   0.0000   0.2927
  24.200   1.4486   0.21731   0.21457  -0.1528  0.0393  0.8797  -5.4457   0.0000   0.2936
  24.400   1.4479   0.21958   0.21689  -0.1550  0.0384  0.8801  -5.4654   0.0000   0.2945
  24.600   1.4470   0.22189   0.21925  -0.1574  0.0374  0.8804  -5.4831   0.0000   0.2955
  24.800   1.4470   0.22400   0.22140  -0.1596  0.0365  0.8808  -5.5082   0.0000   0.2962
  25.000   1.4476   0.22603   0.22343  -0.1617  0.0357  0.8812  -5.5376   0.0000   0.2969


