xflr5 v6.47

 Calculated polar for: NACA24018_theta30_Ku4.5_Kl0.5_d0.17_delta4.56

 1 1 Reynolds number fixed          Mach number fixed         

 xtrf =   1.000 (top)        1.000 (bottom)
 Mach =   0.000     Re =     3.200 e 6     Ncrit =   5.000

  alpha     CL        CD       CDp       Cm    Top Xtr Bot Xtr   Cpmin    Chinge    XCp    
 ------- -------- --------- --------- -------- ------- ------- -------- --------- ---------
 -15.000  -0.9264   0.02354   0.01925  -0.1011  0.9023  0.0255  -6.3926   0.0000   0.1174
 -14.800  -0.9090   0.02326   0.01896  -0.1009  0.9020  0.0258  -6.2587   0.0000   0.1157
 -14.600  -0.8900   0.02301   0.01870  -0.1010  0.9017  0.0261  -6.1200   0.0000   0.1134
 -14.400  -0.8687   0.02274   0.01844  -0.1015  0.9015  0.0263  -5.9741   0.0000   0.1102
 -14.200  -0.8438   0.02240   0.01810  -0.1025  0.9010  0.0268  -5.8178   0.0000   0.1056
 -14.000  -0.8164   0.02203   0.01773  -0.1039  0.9006  0.0273  -5.6543   0.0000   0.0998
 -13.800  -0.7867   0.02163   0.01734  -0.1057  0.9002  0.0278  -5.4844   0.0000   0.0926
 -13.600  -0.7553   0.02122   0.01694  -0.1077  0.8998  0.0283  -5.3110   0.0000   0.0843
 -13.400  -0.7225   0.02081   0.01653  -0.1100  0.8994  0.0288  -5.1378   0.0000   0.0745
 -13.200  -0.6888   0.02039   0.01612  -0.1123  0.8991  0.0292  -4.9680   0.0000   0.0633
 -13.000  -0.6548   0.01998   0.01571  -0.1147  0.8988  0.0296  -4.7994   0.0000   0.0509
 -12.800  -0.6213   0.01956   0.01529  -0.1171  0.8986  0.0303  -4.6348   0.0000   0.0372
 -12.600  -0.5886   0.01918   0.01493  -0.1193  0.8983  0.0312  -4.4750   0.0000   0.0226
 -12.400  -0.5561   0.01882   0.01458  -0.1214  0.8982  0.0319  -4.3176   0.0000   0.0063
 -12.200  -0.5251   0.01853   0.01430  -0.1233  0.8980  0.0325  -4.1666   0.0000  -0.0107
 -12.000  -0.5251   0.01897   0.01475  -0.1197  0.8946  0.0327  -4.1060   0.0000  -0.0033
 -10.800  -0.3784   0.01857   0.01442  -0.1236  0.8799  0.0370  -3.3724   0.0000  -0.1054
 -10.600  -0.3700   0.01911   0.01497  -0.1214  0.8520  0.0377  -3.2970   0.0000  -0.1070
 -10.400  -0.3139   0.01809   0.01394  -0.1275  0.8476  0.0393  -3.1034   0.0000  -0.1883
 -10.200  -0.2316   0.01617   0.01192  -0.1383  0.8308  0.0408  -2.8527   0.0000  -0.3884
 -10.000  -0.2329   0.01661   0.01197  -0.1342  0.7353  0.0414  -2.8064   0.0000  -0.3660
  -9.800  -0.2143   0.01675   0.01200  -0.1338  0.6987  0.0424  -2.7156   0.0000  -0.4162
  -9.600  -0.1919   0.01682   0.01197  -0.1340  0.6716  0.0435  -2.6176   0.0000  -0.4932
  -9.400  -0.1675   0.01686   0.01195  -0.1345  0.6523  0.0444  -2.5163   0.0000  -0.6028
  -9.200  -0.1417   0.01687   0.01192  -0.1353  0.6346  0.0460  -2.4135   0.0000  -0.7615
  -9.000  -0.1158   0.01689   0.01188  -0.1361  0.6161  0.0476  -2.3117   0.0000  -0.9923
  -8.800  -0.0902   0.01691   0.01184  -0.1369  0.5964  0.0487  -2.2119   0.0000  -1.3507
  -8.600  -0.0636   0.01691   0.01178  -0.1378  0.5759  0.0503  -2.1118   0.0000  -2.0285
  -8.400  -0.0364   0.01691   0.01173  -0.1388  0.5575  0.0522  -2.0117   0.0000  -3.7562
  -8.200  -0.0090   0.01691   0.01168  -0.1399  0.5424  0.0540  -1.9150   0.0000  -15.9565
  -8.000   0.0191   0.01691   0.01164  -0.1411  0.5266  0.0564  -1.8207   0.0000   7.9779
  -7.800   0.0460   0.01693   0.01161  -0.1420  0.5113  0.0584  -1.7300   0.0000   3.4669
  -7.600   0.0735   0.01696   0.01160  -0.1431  0.4952  0.0610  -1.6399   0.0000   2.2757
  -7.400   0.1003   0.01700   0.01159  -0.1440  0.4792  0.0631  -1.5566   0.0000   1.7421
  -7.200   0.1273   0.01704   0.01159  -0.1450  0.4638  0.0655  -1.4744   0.0000   1.4308
  -7.000   0.1542   0.01709   0.01159  -0.1459  0.4490  0.0681  -1.3970   0.0000   1.2289
  -6.800   0.1812   0.01714   0.01161  -0.1468  0.4348  0.0708  -1.3206   0.0000   1.0870
  -6.600   0.2084   0.01720   0.01163  -0.1478  0.4216  0.0744  -1.2452   0.0000   0.9814
  -6.400   0.2359   0.01726   0.01167  -0.1489  0.4095  0.0786  -1.1704   0.0000   0.8995
  -6.200   0.2629   0.01733   0.01171  -0.1498  0.3992  0.0826  -1.0974   0.0000   0.8353
  -6.000   0.2904   0.01740   0.01175  -0.1508  0.3863  0.0877  -1.0250   0.0000   0.7826
  -5.800   0.3183   0.01748   0.01182  -0.1519  0.3762  0.0935  -0.9533   0.0000   0.7386
  -5.600   0.3458   0.01756   0.01188  -0.1529  0.3660  0.0992  -0.8839   0.0000   0.7020
  -5.400   0.3729   0.01765   0.01194  -0.1539  0.3566  0.1046  -0.8201   0.0000   0.6710
  -5.200   0.4008   0.01774   0.01202  -0.1550  0.3470  0.1122  -0.8491   0.0000   0.6438
  -5.000   0.4293   0.01784   0.01212  -0.1562  0.3397  0.1213  -0.8786   0.0000   0.6199
  -4.800   0.4576   0.01794   0.01222  -0.1573  0.3318  0.1307  -0.9083   0.0000   0.5990
  -4.600   0.4866   0.01806   0.01235  -0.1586  0.3277  0.1425  -0.9386   0.0000   0.5803
  -4.400   0.5181   0.01819   0.01253  -0.1604  0.3221  0.1619  -0.9709   0.0000   0.5632
  -4.200   0.5492   0.01833   0.01268  -0.1621  0.3153  0.1817  -1.0030   0.0000   0.5481
  -4.000   0.5841   0.01850   0.01292  -0.1646  0.3111  0.2128  -1.0381   0.0000   0.5341
  -3.800   0.6268   0.01875   0.01328  -0.1686  0.3056  0.2666  -1.0791   0.0000   0.5207
  -3.600   0.6683   0.01900   0.01361  -0.1724  0.2969  0.3147  -1.1195   0.0000   0.5091
  -3.400   0.7063   0.01926   0.01396  -0.1755  0.2927  0.3550  -1.1579   0.0000   0.4991
  -3.200   0.7408   0.01951   0.01425  -0.1778  0.2884  0.3847  -1.1939   0.0000   0.4902
  -3.000   0.7735   0.01974   0.01451  -0.1798  0.2838  0.4098  -1.2299   0.0000   0.4822
  -2.800   0.8042   0.01995   0.01475  -0.1814  0.2790  0.4297  -1.2664   0.0000   0.4749
  -2.600   0.8353   0.02018   0.01501  -0.1830  0.2762  0.4503  -1.3035   0.0000   0.4681
  -2.400   0.8668   0.02042   0.01528  -0.1848  0.2722  0.4720  -1.3412   0.0000   0.4617
  -2.200   0.8979   0.02067   0.01553  -0.1864  0.2676  0.4921  -1.3788   0.0000   0.4558
  -2.000   0.9281   0.02091   0.01578  -0.1878  0.2629  0.5088  -1.4173   0.0000   0.4503
  -1.800   0.9530   0.02107   0.01594  -0.1883  0.2607  0.5158  -1.4517   0.0000   0.4451
  -1.600   0.9794   0.02125   0.01613  -0.1890  0.2577  0.5226  -1.4890   0.0000   0.4402
  -1.400   1.0044   0.02143   0.01629  -0.1894  0.2545  0.5283  -1.5253   0.0000   0.4355
  -1.200   1.0281   0.02158   0.01642  -0.1896  0.2511  0.5326  -1.5606   0.0000   0.4310
  -1.000   1.0513   0.02173   0.01655  -0.1896  0.2477  0.5357  -1.5956   0.0000   0.4268
  -0.800   1.0768   0.02191   0.01674  -0.1902  0.2461  0.5412  -1.6330   0.0000   0.4227
  -0.600   1.1016   0.02209   0.01692  -0.1905  0.2435  0.5462  -1.6699   0.0000   0.4187
  -0.400   1.1251   0.02226   0.01707  -0.1907  0.2397  0.5506  -1.7058   0.0000   0.4150
  -0.200   1.1479   0.02242   0.01720  -0.1907  0.2352  0.5543  -1.7413   0.0000   0.4113
   0.000   1.1726   0.02262   0.01739  -0.1911  0.2322  0.5598  -1.7787   0.0000   0.4078
   0.200   1.1978   0.02282   0.01760  -0.1915  0.2304  0.5657  -1.8186   0.0000   0.4045
   0.400   1.2214   0.02300   0.01778  -0.1917  0.2279  0.5704  -1.8584   0.0000   0.4013
   0.600   1.2439   0.02318   0.01793  -0.1916  0.2247  0.5739  -1.8973   0.0000   0.3981
   0.800   1.2668   0.02338   0.01811  -0.1916  0.2203  0.5778  -1.9367   0.0000   0.3950
   1.000   1.2920   0.02361   0.01834  -0.1921  0.2175  0.5840  -1.9787   0.0000   0.3922
   1.200   1.3156   0.02381   0.01855  -0.1922  0.2151  0.5894  -2.0195   0.0000   0.3893
   1.400   1.3379   0.02401   0.01873  -0.1921  0.2122  0.5935  -2.0610   0.0000   0.3865
   1.600   1.3596   0.02420   0.01891  -0.1919  0.2093  0.5965  -2.1032   0.0000   0.3838
   1.800   1.3835   0.02445   0.01914  -0.1921  0.2059  0.6015  -2.1480   0.0000   0.3812
   2.000   1.4069   0.02467   0.01937  -0.1923  0.2040  0.6061  -2.1926   0.0000   0.3787
   2.200   1.4294   0.02489   0.01959  -0.1922  0.2016  0.6107  -2.2364   0.0000   0.3762
   2.400   1.4508   0.02510   0.01979  -0.1919  0.1982  0.6145  -2.2792   0.0000   0.3738
   2.600   1.4726   0.02534   0.02001  -0.1918  0.1944  0.6185  -2.3227   0.0000   0.3714
   2.800   1.4965   0.02562   0.02028  -0.1920  0.1916  0.6244  -2.3689   0.0000   0.3692
   3.000   1.5190   0.02587   0.02054  -0.1919  0.1898  0.6294  -2.4166   0.0000   0.3669
   3.200   1.5400   0.02611   0.02077  -0.1916  0.1868  0.6333  -2.4632   0.0000   0.3647
   3.400   1.5598   0.02637   0.02101  -0.1910  0.1831  0.6360  -2.5085   0.0000   0.3625
   3.600   1.5811   0.02667   0.02129  -0.1908  0.1796  0.6397  -2.5560   0.0000   0.3603
   3.800   1.6035   0.02696   0.02160  -0.1907  0.1780  0.6441  -2.6065   0.0000   0.3583
   4.000   1.6248   0.02726   0.02190  -0.1904  0.1754  0.6486  -2.6581   0.0000   0.3563
   4.200   1.6446   0.02757   0.02220  -0.1899  0.1720  0.6525  -2.7080   0.0000   0.3542
   4.400   1.6635   0.02788   0.02249  -0.1892  0.1681  0.6555  -2.7580   0.0000   0.3522
   4.600   1.6837   0.02818   0.02279  -0.1888  0.1661  0.6589  -2.8108   0.0000   0.3502
   4.800   1.7052   0.02854   0.02315  -0.1885  0.1630  0.6636  -2.8673   0.0000   0.3484
   5.000   1.7248   0.02890   0.02350  -0.1880  0.1591  0.6678  -2.9216   0.0000   0.3465
   5.200   1.7438   0.02924   0.02382  -0.1873  0.1557  0.6713  -2.9754   0.0000   0.3446
   5.400   1.7624   0.02955   0.02414  -0.1866  0.1531  0.6741  -3.0289   0.0000   0.3427
   5.600   1.7800   0.02990   0.02447  -0.1857  0.1498  0.6763  -3.0814   0.0000   0.3408
   5.800   1.7985   0.03030   0.02485  -0.1850  0.1459  0.6795  -3.1397   0.0000   0.3390
   6.000   1.8185   0.03069   0.02525  -0.1845  0.1432  0.6835  -3.2024   0.0000   0.3373
   6.200   1.8365   0.03114   0.02568  -0.1837  0.1389  0.6869  -3.2626   0.0000   0.3355
   6.400   1.8538   0.03156   0.02609  -0.1828  0.1351  0.6899  -3.3254   0.0000   0.3337
   6.600   1.8710   0.03196   0.02648  -0.1818  0.1321  0.6926  -3.3899   0.0000   0.3320
   6.800   1.8867   0.03243   0.02694  -0.1806  0.1286  0.6950  -3.4537   0.0000   0.3302
   7.000   1.9018   0.03291   0.02741  -0.1794  0.1255  0.6969  -3.5203   0.0000   0.3284
   7.200   1.9181   0.03345   0.02795  -0.1783  0.1217  0.7002  -3.5898   0.0000   0.3267
   7.400   1.9333   0.03408   0.02855  -0.1771  0.1170  0.7036  -3.6594   0.0000   0.3249
   7.600   1.9489   0.03462   0.02910  -0.1759  0.1132  0.7068  -3.7355   0.0000   0.3232
   7.800   1.9630   0.03523   0.02969  -0.1746  0.1093  0.7096  -3.8113   0.0000   0.3215
   8.000   1.9781   0.03575   0.03021  -0.1733  0.1068  0.7121  -3.8900   0.0000   0.3198
   8.200   1.9920   0.03632   0.03078  -0.1719  0.1037  0.7141  -3.9665   0.0000   0.3182
   8.400   2.0047   0.03697   0.03142  -0.1704  0.1007  0.7157  -4.0408   0.0000   0.3164
   8.600   2.0178   0.03759   0.03205  -0.1689  0.0987  0.7174  -4.1169   0.0000   0.3148
   8.800   2.0308   0.03833   0.03279  -0.1674  0.0956  0.7203  -4.1932   0.0000   0.3131
   9.000   2.0432   0.03909   0.03355  -0.1658  0.0922  0.7229  -4.2686   0.0000   0.3114
   9.200   2.0547   0.03988   0.03433  -0.1642  0.0883  0.7252  -4.3424   0.0000   0.3098
   9.400   2.0654   0.04070   0.03514  -0.1624  0.0847  0.7272  -4.4219   0.0000   0.3081
   9.600   2.0741   0.04165   0.03609  -0.1604  0.0812  0.7292  -4.4979   0.0000   0.3064
   9.800   2.0840   0.04252   0.03697  -0.1585  0.0786  0.7313  -4.5787   0.0000   0.3047
  10.000   2.0944   0.04336   0.03781  -0.1568  0.0762  0.7331  -4.6624   0.0000   0.3031
  10.200   2.1026   0.04437   0.03882  -0.1548  0.0733  0.7346  -4.7408   0.0000   0.3014
  10.400   2.1111   0.04535   0.03981  -0.1529  0.0711  0.7357  -4.8207   0.0000   0.2998
  10.600   2.1182   0.04645   0.04092  -0.1508  0.0683  0.7371  -4.8974   0.0000   0.2982
  10.800   2.1270   0.04748   0.04196  -0.1491  0.0662  0.7392  -4.9788   0.0000   0.2966
  11.000   2.1337   0.04869   0.04319  -0.1471  0.0640  0.7413  -5.0554   0.0000   0.2950
  11.200   2.1398   0.04994   0.04445  -0.1450  0.0616  0.7434  -5.1329   0.0000   0.2934
  11.400   2.1457   0.05119   0.04572  -0.1431  0.0595  0.7453  -5.2108   0.0000   0.2918
  11.600   2.1495   0.05265   0.04720  -0.1409  0.0570  0.7470  -5.2826   0.0000   0.2903
  11.800   2.1542   0.05405   0.04862  -0.1389  0.0552  0.7487  -5.3601   0.0000   0.2887
  12.000   2.1575   0.05560   0.05019  -0.1369  0.0531  0.7502  -5.4363   0.0000   0.2872
  12.200   2.1604   0.05722   0.05183  -0.1349  0.0514  0.7517  -5.5115   0.0000   0.2857
  12.400   2.1635   0.05885   0.05349  -0.1331  0.0498  0.7529  -5.5878   0.0000   0.2843
  12.600   2.1640   0.06077   0.05543  -0.1311  0.0480  0.7539  -5.6561   0.0000   0.2829
  12.800   2.1657   0.06261   0.05730  -0.1294  0.0466  0.7548  -5.7279   0.0000   0.2815
  13.000   2.1670   0.06451   0.05924  -0.1277  0.0451  0.7559  -5.7986   0.0000   0.2802
  13.200   2.1658   0.06669   0.06146  -0.1261  0.0436  0.7573  -5.8617   0.0000   0.2790
  13.400   2.1661   0.06877   0.06358  -0.1246  0.0424  0.7587  -5.9291   0.0000   0.2778
  13.600   2.1652   0.07102   0.06588  -0.1232  0.0411  0.7600  -5.9924   0.0000   0.2766
  13.800   2.1622   0.07352   0.06842  -0.1219  0.0399  0.7613  -6.0490   0.0000   0.2755
  14.000   2.1598   0.07600   0.07094  -0.1208  0.0389  0.7626  -6.1070   0.0000   0.2745
  14.200   2.1587   0.07835   0.07335  -0.1198  0.0381  0.7639  -6.1689   0.0000   0.2735
  14.400   2.1560   0.08091   0.07596  -0.1189  0.0371  0.7652  -6.2254   0.0000   0.2726
  14.600   2.1511   0.08378   0.07888  -0.1182  0.0361  0.7664  -6.2735   0.0000   0.2718
  14.800   2.1458   0.08673   0.08188  -0.1176  0.0353  0.7675  -6.3198   0.0000   0.2711
  15.000   2.1416   0.08956   0.08477  -0.1172  0.0347  0.7685  -6.3693   0.0000   0.2704
  15.200   2.1365   0.09254   0.08781  -0.1170  0.0339  0.7694  -6.4148   0.0000   0.2698
  15.400   2.1301   0.09571   0.09103  -0.1169  0.0332  0.7701  -6.4549   0.0000   0.2694
  15.600   2.1225   0.09907   0.09446  -0.1171  0.0324  0.7708  -6.4893   0.0000   0.2690
  15.800   2.1159   0.10232   0.09776  -0.1174  0.0318  0.7715  -6.5288   0.0000   0.2687
  16.000   2.1103   0.10546   0.10096  -0.1179  0.0312  0.7722  -6.5709   0.0000   0.2684
  16.200   2.1031   0.10883   0.10439  -0.1185  0.0306  0.7728  -6.6060   0.0000   0.2683
  16.400   2.0944   0.11242   0.10805  -0.1194  0.0300  0.7732  -6.6338   0.0000   0.2683
  16.600   2.0842   0.11618   0.11187  -0.1205  0.0294  0.7742  -6.6542   0.0000   0.2684
  16.800   2.0738   0.11999   0.11575  -0.1218  0.0288  0.7752  -6.6721   0.0000   0.2686
  17.000   2.0656   0.12352   0.11935  -0.1231  0.0284  0.7762  -6.6980   0.0000   0.2688
  17.200   2.0572   0.12707   0.12297  -0.1245  0.0279  0.7772  -6.7226   0.0000   0.2690
  17.400   2.0491   0.13056   0.12653  -0.1260  0.0274  0.7780  -6.7506   0.0000   0.2693
  17.600   2.0399   0.13424   0.13027  -0.1278  0.0269  0.7789  -6.7716   0.0000   0.2698
  17.800   2.0287   0.13820   0.13430  -0.1298  0.0264  0.7796  -6.7821   0.0000   0.2704
  18.000   2.0172   0.14223   0.13840  -0.1321  0.0259  0.7804  -6.7892   0.0000   0.2711
  18.200   2.0075   0.14599   0.14222  -0.1342  0.0255  0.7812  -6.8034   0.0000   0.2718
  18.400   2.0011   0.14920   0.14548  -0.1361  0.0251  0.7821  -6.8332   0.0000   0.2722
  18.600   1.9909   0.15303   0.14939  -0.1385  0.0247  0.7830  -6.8421   0.0000   0.2731
  18.800   1.9808   0.15685   0.15327  -0.1411  0.0243  0.7839  -6.8501   0.0000   0.2740
  19.000   1.9735   0.16020   0.15667  -0.1433  0.0237  0.7848  -6.8717   0.0000   0.2746
  19.200   1.9621   0.16425   0.16078  -0.1462  0.0233  0.7856  -6.8698   0.0000   0.2758
  19.400   1.9526   0.16800   0.16459  -0.1490  0.0228  0.7864  -6.8759   0.0000   0.2768
  19.600   1.9474   0.17106   0.16769  -0.1512  0.0224  0.7873  -6.9045   0.0000   0.2774
  19.800   1.9391   0.17463   0.17132  -0.1540  0.0221  0.7879  -6.9145   0.0000   0.2784
  20.000   1.9340   0.17766   0.17439  -0.1563  0.0216  0.7886  -6.9419   0.0000   0.2790
  20.200   1.9257   0.18123   0.17802  -0.1593  0.0212  0.7891  -6.9492   0.0000   0.2801
  20.400   1.9202   0.18432   0.18115  -0.1618  0.0208  0.7896  -6.9718   0.0000   0.2809
  20.600   1.9122   0.18785   0.18472  -0.1648  0.0204  0.7901  -6.9781   0.0000   0.2821
  20.800   1.9085   0.19064   0.18755  -0.1672  0.0201  0.7906  -7.0092   0.0000   0.2827
  21.000   1.9062   0.19310   0.19005  -0.1692  0.0198  0.7918  -7.0486   0.0000   0.2831
  21.200   1.8989   0.19642   0.19343  -0.1722  0.0195  0.7928  -7.0564   0.0000   0.2842
  21.400   1.8965   0.19889   0.19594  -0.1743  0.0191  0.7939  -7.0937   0.0000   0.2847
  21.600   1.8904   0.20201   0.19911  -0.1772  0.0188  0.7948  -7.1065   0.0000   0.2857
  21.800   1.8863   0.20476   0.20189  -0.1797  0.0185  0.7957  -7.1316   0.0000   0.2865
  22.000   1.8833   0.20730   0.20447  -0.1821  0.0181  0.7966  -7.1628   0.0000   0.2871
  22.200   1.8763   0.21056   0.20777  -0.1853  0.0178  0.7973  -7.1659   0.0000   0.2883
  22.400   1.8750   0.21279   0.21004  -0.1874  0.0176  0.7981  -7.2072   0.0000   0.2887
  22.600   1.8739   0.21496   0.21224  -0.1895  0.0173  0.7989  -7.2495   0.0000   0.2891
  22.800   1.8682   0.21798   0.21531  -0.1925  0.0171  0.7997  -7.2584   0.0000   0.2902
  23.000   1.8666   0.22024   0.21760  -0.1948  0.0167  0.8005  -7.2957   0.0000   0.2907
  23.200   1.8649   0.22253   0.21991  -0.1971  0.0164  0.8012  -7.3314   0.0000   0.2912
  23.400   1.8587   0.22562   0.22306  -0.2003  0.0161  0.8019  -7.3340   0.0000   0.2925
  23.600   1.8568   0.22794   0.22540  -0.2028  0.0157  0.8026  -7.3666   0.0000   0.2930
  23.800   1.8544   0.23034   0.22783  -0.2053  0.0154  0.8033  -7.3950   0.0000   0.2937
  24.000   1.8504   0.23305   0.23057  -0.2082  0.0152  0.8040  -7.4100   0.0000   0.2947
  24.200   1.8499   0.23508   0.23264  -0.2104  0.0150  0.8047  -7.4512   0.0000   0.2951
  24.400   1.8488   0.23721   0.23479  -0.2128  0.0147  0.8054  -7.4881   0.0000   0.2955
  24.600   1.8438   0.24010   0.23772  -0.2160  0.0144  0.8059  -7.4920   0.0000   0.2967
  24.800   1.8427   0.24220   0.23985  -0.2184  0.0142  0.8065  -7.5274   0.0000   0.2972
  25.000   1.8411   0.24440   0.24207  -0.2209  0.0139  0.8070  -7.5578   0.0000   0.2978


