xflr5 v6.47

 Calculated polar for: NACA24018_theta30_Ku4.5_Kl0.5_d0.07_delta1.57

 1 1 Reynolds number fixed          Mach number fixed         

 xtrf =   1.000 (top)        1.000 (bottom)
 Mach =   0.000     Re =     1.600 e 6     Ncrit =   5.000

  alpha     CL        CD       CDp       Cm    Top Xtr Bot Xtr   Cpmin    Chinge    XCp    
 ------- -------- --------- --------- -------- ------- ------- -------- --------- ---------
 -14.800  -1.1018   0.02420   0.01919  -0.0752  0.9836  0.0248  -6.9692   0.0000   0.1592
 -14.400  -1.0640   0.02314   0.01809  -0.0759  0.9800  0.0253  -6.6867   0.0000   0.1566
 -14.200  -1.0459   0.02264   0.01755  -0.0760  0.9785  0.0255  -6.5497   0.0000   0.1555
 -14.000  -1.0268   0.02214   0.01705  -0.0765  0.9776  0.0259  -6.4113   0.0000   0.1540
 -13.800  -1.0058   0.02172   0.01662  -0.0771  0.9770  0.0264  -6.2670   0.0000   0.1520
 -13.600  -0.9955   0.02099   0.01587  -0.0757  0.9736  0.0267  -6.1602   0.0000   0.1530
 -13.400  -0.9770   0.02052   0.01540  -0.0758  0.9725  0.0271  -6.0259   0.0000   0.1518
 -13.200  -0.9572   0.02010   0.01497  -0.0760  0.9718  0.0275  -5.8880   0.0000   0.1501
 -13.000  -0.9361   0.01973   0.01459  -0.0765  0.9713  0.0279  -5.7466   0.0000   0.1480
 -12.800  -0.9284   0.01910   0.01395  -0.0743  0.9676  0.0282  -5.6508   0.0000   0.1501
 -12.600  -0.9099   0.01869   0.01353  -0.0742  0.9664  0.0286  -5.5200   0.0000   0.1488
 -12.400  -0.8896   0.01832   0.01314  -0.0743  0.9655  0.0290  -5.3847   0.0000   0.1470
 -12.200  -0.8788   0.01784   0.01264  -0.0726  0.9627  0.0292  -5.2808   0.0000   0.1482
 -12.000  -0.8654   0.01738   0.01218  -0.0713  0.9598  0.0295  -5.1697   0.0000   0.1487
 -11.800  -0.8479   0.01696   0.01175  -0.0709  0.9583  0.0301  -5.0466   0.0000   0.1477
 -11.600  -0.8642   0.01644   0.01120  -0.0638  0.9423  0.0303  -5.0307   0.0000   0.1581
 -11.400  -0.8543   0.01607   0.01083  -0.0618  0.9367  0.0307  -4.9358   0.0000   0.1599
 -11.200  -0.8390   0.01569   0.01045  -0.0608  0.9337  0.0312  -4.8254   0.0000   0.1601
 -11.000  -0.8249   0.01534   0.01009  -0.0595  0.9293  0.0317  -4.7192   0.0000   0.1606
 -10.800  -0.8057   0.01499   0.00973  -0.0591  0.9255  0.0322  -4.5987   0.0000   0.1595
 -10.600  -0.7830   0.01463   0.00936  -0.0594  0.9228  0.0328  -4.4700   0.0000   0.1572
 -10.400  -0.7611   0.01429   0.00901  -0.0595  0.9179  0.0333  -4.3495   0.0000   0.1550
 -10.200  -0.7344   0.01392   0.00863  -0.0605  0.9134  0.0337  -4.2174   0.0000   0.1508
 -10.000  -0.7054   0.01349   0.00819  -0.0621  0.9091  0.0347  -4.0809   0.0000   0.1452
  -9.800  -0.6749   0.01309   0.00779  -0.0639  0.9022  0.0356  -3.9418   0.0000   0.1385
  -9.600  -0.6397   0.01268   0.00736  -0.0667  0.8938  0.0367  -3.7920   0.0000   0.1288
  -9.400  -0.5968   0.01226   0.00689  -0.0709  0.8801  0.0379  -3.6249   0.0000   0.1138
  -9.200  -0.5609   0.01196   0.00649  -0.0738  0.8551  0.0387  -3.4784   0.0000   0.1008
  -9.000  -0.5381   0.01175   0.00619  -0.0740  0.8259  0.0398  -3.3666   0.0000   0.0947
  -8.800  -0.5202   0.01161   0.00595  -0.0733  0.7999  0.0408  -3.2677   0.0000   0.0915
  -8.600  -0.5031   0.01148   0.00575  -0.0723  0.7788  0.0417  -3.1716   0.0000   0.0886
  -8.400  -0.4858   0.01137   0.00557  -0.0714  0.7596  0.0426  -3.0760   0.0000   0.0854
  -8.200  -0.4682   0.01127   0.00540  -0.0705  0.7402  0.0434  -2.9809   0.0000   0.0818
  -8.000  -0.4503   0.01117   0.00524  -0.0697  0.7205  0.0445  -2.8859   0.0000   0.0775
  -7.800  -0.4319   0.01105   0.00507  -0.0690  0.7021  0.0459  -2.7911   0.0000   0.0725
  -7.600  -0.4130   0.01095   0.00491  -0.0684  0.6848  0.0472  -2.6958   0.0000   0.0666
  -7.400  -0.3934   0.01086   0.00477  -0.0679  0.6696  0.0483  -2.6021   0.0000   0.0594
  -7.200  -0.3734   0.01078   0.00464  -0.0675  0.6555  0.0493  -2.5111   0.0000   0.0512
  -7.000  -0.3533   0.01069   0.00451  -0.0671  0.6405  0.0507  -2.4212   0.0000   0.0419
  -6.800  -0.3332   0.01059   0.00438  -0.0667  0.6248  0.0526  -2.3322   0.0000   0.0313
  -6.600  -0.3128   0.01052   0.00426  -0.0663  0.6088  0.0544  -2.2434   0.0000   0.0189
  -6.400  -0.2919   0.01046   0.00415  -0.0660  0.5939  0.0558  -2.1551   0.0000   0.0043
  -6.200  -0.2709   0.01039   0.00404  -0.0658  0.5798  0.0575  -2.0717   0.0000  -0.0129
  -6.000  -0.2498   0.01032   0.00394  -0.0656  0.5651  0.0597  -1.9893   0.0000  -0.0332
  -5.800  -0.2285   0.01027   0.00384  -0.0654  0.5501  0.0618  -1.9075   0.0000  -0.0577
  -5.600  -0.2070   0.01022   0.00376  -0.0652  0.5362  0.0636  -1.8262   0.0000  -0.0877
  -5.400  -0.1854   0.01016   0.00367  -0.0651  0.5237  0.0668  -1.7461   0.0000  -0.1251
  -5.200  -0.1637   0.01011   0.00359  -0.0650  0.5104  0.0698  -1.6692   0.0000  -0.1727
  -5.000  -0.1419   0.01008   0.00351  -0.0649  0.4966  0.0720  -1.5947   0.0000  -0.2353
  -4.800  -0.1200   0.01003   0.00344  -0.0648  0.4832  0.0759  -1.5212   0.0000  -0.3213
  -4.600  -0.0979   0.01000   0.00338  -0.0648  0.4710  0.0798  -1.4483   0.0000  -0.4469
  -4.400  -0.0758   0.00995   0.00332  -0.0647  0.4600  0.0842  -1.3762   0.0000  -0.6477
  -4.200  -0.0534   0.00991   0.00326  -0.0647  0.4491  0.0891  -1.3048   0.0000  -1.0182
  -4.000  -0.0311   0.00988   0.00321  -0.0647  0.4374  0.0944  -1.2350   0.0000  -1.9188
  -3.800  -0.0088   0.00986   0.00317  -0.0647  0.4256  0.1004  -1.1694   0.0000  -7.4089
  -3.600   0.0136   0.00984   0.00313  -0.0648  0.4140  0.1062  -1.1046   0.0000   5.1827
  -3.400   0.0363   0.00981   0.00309  -0.0648  0.4039  0.1132  -1.0404   0.0000   2.0974
  -3.200   0.0591   0.00977   0.00306  -0.0649  0.3941  0.1231  -0.9784   0.0000   1.3824
  -3.000   0.0819   0.00975   0.00303  -0.0651  0.3838  0.1345  -0.9192   0.0000   1.0654
  -2.800   0.1050   0.00971   0.00300  -0.0652  0.3745  0.1465  -0.8634   0.0000   0.8856
  -2.600   0.1286   0.00965   0.00298  -0.0655  0.3670  0.1648  -0.8083   0.0000   0.7697
  -2.400   0.1530   0.00956   0.00295  -0.0660  0.3593  0.1910  -0.8063   0.0000   0.6888
  -2.200   0.1786   0.00942   0.00292  -0.0669  0.3527  0.2302  -0.8319   0.0000   0.6292
  -2.000   0.2084   0.00915   0.00287  -0.0687  0.3451  0.3084  -0.8613   0.0000   0.5828
  -1.800   0.2361   0.00903   0.00287  -0.0700  0.3384  0.3547  -0.8898   0.0000   0.5481
  -1.600   0.2637   0.00894   0.00289  -0.0712  0.3313  0.3948  -0.9185   0.0000   0.5205
  -1.400   0.2914   0.00889   0.00292  -0.0724  0.3254  0.4301  -0.9474   0.0000   0.4981
  -1.200   0.3187   0.00885   0.00296  -0.0734  0.3204  0.4589  -0.9763   0.0000   0.4794
  -1.000   0.3448   0.00887   0.00300  -0.0742  0.3146  0.4792  -1.0054   0.0000   0.4636
  -0.800   0.3711   0.00888   0.00305  -0.0750  0.3099  0.5000  -1.0354   0.0000   0.4500
  -0.600   0.3979   0.00889   0.00310  -0.0759  0.3050  0.5193  -1.0673   0.0000   0.4382
  -0.400   0.4245   0.00893   0.00316  -0.0768  0.3000  0.5381  -1.0991   0.0000   0.4279
  -0.200   0.4516   0.00895   0.00322  -0.0778  0.2961  0.5588  -1.1316   0.0000   0.4187
   0.000   0.4791   0.00898   0.00329  -0.0788  0.2918  0.5772  -1.1646   0.0000   0.4107
   0.200   0.5063   0.00904   0.00337  -0.0798  0.2875  0.5946  -1.1976   0.0000   0.4034
   0.400   0.5318   0.00910   0.00344  -0.0804  0.2840  0.6061  -1.2294   0.0000   0.3967
   0.600   0.5569   0.00916   0.00350  -0.0810  0.2813  0.6142  -1.2612   0.0000   0.3905
   0.800   0.5815   0.00923   0.00357  -0.0814  0.2782  0.6210  -1.2927   0.0000   0.3847
   1.000   0.6062   0.00931   0.00365  -0.0818  0.2747  0.6290  -1.3250   0.0000   0.3795
   1.200   0.6305   0.00940   0.00373  -0.0822  0.2706  0.6363  -1.3582   0.0000   0.3746
   1.400   0.6554   0.00947   0.00381  -0.0826  0.2679  0.6440  -1.3921   0.0000   0.3701
   1.600   0.6798   0.00955   0.00389  -0.0830  0.2647  0.6508  -1.4258   0.0000   0.3659
   1.800   0.7045   0.00964   0.00399  -0.0835  0.2615  0.6586  -1.4598   0.0000   0.3620
   2.000   0.7288   0.00975   0.00408  -0.0839  0.2581  0.6659  -1.4938   0.0000   0.3583
   2.200   0.7535   0.00984   0.00418  -0.0843  0.2553  0.6736  -1.5299   0.0000   0.3549
   2.400   0.7781   0.00993   0.00428  -0.0847  0.2524  0.6808  -1.5662   0.0000   0.3516
   2.600   0.8026   0.01003   0.00439  -0.0852  0.2491  0.6886  -1.6026   0.0000   0.3486
   2.800   0.8268   0.01015   0.00450  -0.0855  0.2459  0.6958  -1.6389   0.0000   0.3457
   3.000   0.8510   0.01027   0.00462  -0.0859  0.2426  0.7038  -1.6772   0.0000   0.3429
   3.200   0.8753   0.01037   0.00473  -0.0863  0.2401  0.7105  -1.7160   0.0000   0.3403
   3.400   0.8994   0.01048   0.00485  -0.0866  0.2370  0.7176  -1.7548   0.0000   0.3378
   3.600   0.9227   0.01061   0.00498  -0.0868  0.2340  0.7239  -1.7950   0.0000   0.3353
   3.800   0.9464   0.01076   0.00512  -0.0871  0.2305  0.7309  -1.8358   0.0000   0.3330
   4.200   0.9937   0.01100   0.00539  -0.0876  0.2254  0.7441  -1.9179   0.0000   0.3286
   4.400   1.0165   0.01114   0.00553  -0.0877  0.2227  0.7505  -1.9585   0.0000   0.3265
   4.600   1.0396   0.01129   0.00568  -0.0879  0.2199  0.7566  -1.9996   0.0000   0.3245
   4.800   1.0621   0.01145   0.00584  -0.0879  0.2169  0.7634  -2.0402   0.0000   0.3225
   5.000   1.0849   0.01158   0.00599  -0.0880  0.2150  0.7694  -2.0817   0.0000   0.3206
   5.200   1.1076   0.01172   0.00615  -0.0881  0.2125  0.7756  -2.1251   0.0000   0.3187
   5.400   1.1291   0.01189   0.00631  -0.0880  0.2094  0.7810  -2.1676   0.0000   0.3168
   5.600   1.1501   0.01207   0.00650  -0.0878  0.2064  0.7861  -2.2097   0.0000   0.3150
   5.800   1.1709   0.01226   0.00668  -0.0875  0.2033  0.7916  -2.2517   0.0000   0.3131
   6.000   1.1921   0.01241   0.00685  -0.0873  0.2013  0.7966  -2.2965   0.0000   0.3113
   6.200   1.2124   0.01258   0.00704  -0.0869  0.1985  0.8017  -2.3414   0.0000   0.3095
   6.400   1.2324   0.01278   0.00724  -0.0865  0.1955  0.8065  -2.3878   0.0000   0.3078
   6.800   1.2710   0.01319   0.00766  -0.0855  0.1897  0.8155  -2.4796   0.0000   0.3042
   7.000   1.2907   0.01337   0.00785  -0.0850  0.1878  0.8202  -2.5264   0.0000   0.3026
   7.200   1.3106   0.01357   0.00806  -0.0847  0.1851  0.8242  -2.5750   0.0000   0.3010
   7.400   1.3284   0.01380   0.00829  -0.0839  0.1819  0.8278  -2.6237   0.0000   0.2992
   7.600   1.3451   0.01405   0.00854  -0.0829  0.1784  0.8317  -2.6721   0.0000   0.2974
   7.800   1.3638   0.01426   0.00876  -0.0823  0.1763  0.8357  -2.7237   0.0000   0.2958
   8.000   1.3831   0.01450   0.00900  -0.0818  0.1736  0.8394  -2.7763   0.0000   0.2944
   8.200   1.3981   0.01474   0.00926  -0.0806  0.1711  0.8428  -2.8233   0.0000   0.2925
   8.400   1.4130   0.01500   0.00953  -0.0793  0.1684  0.8462  -2.8702   0.0000   0.2907
   8.600   1.4293   0.01529   0.00982  -0.0783  0.1655  0.8494  -2.9228   0.0000   0.2890
   8.800   1.4476   0.01554   0.01008  -0.0777  0.1630  0.8523  -2.9805   0.0000   0.2876
   9.000   1.4654   0.01584   0.01038  -0.0771  0.1597  0.8548  -3.0378   0.0000   0.2862
   9.200   1.4764   0.01614   0.01069  -0.0751  0.1568  0.8577  -3.0848   0.0000   0.2842
   9.400   1.4885   0.01647   0.01103  -0.0734  0.1540  0.8607  -3.1380   0.0000   0.2823
   9.600   1.5038   0.01676   0.01134  -0.0723  0.1521  0.8635  -3.1978   0.0000   0.2807
   9.800   1.5205   0.01709   0.01168  -0.0716  0.1490  0.8661  -3.2600   0.0000   0.2794
  10.000   1.5373   0.01752   0.01209  -0.0709  0.1450  0.8683  -3.3228   0.0000   0.2781
  10.200   1.5460   0.01791   0.01249  -0.0687  0.1419  0.8706  -3.3719   0.0000   0.2761
  10.400   1.5556   0.01822   0.01283  -0.0666  0.1402  0.8730  -3.4245   0.0000   0.2741
  10.600   1.5667   0.01860   0.01323  -0.0649  0.1375  0.8752  -3.4860   0.0000   0.2724
  10.800   1.5786   0.01908   0.01371  -0.0635  0.1341  0.8772  -3.5495   0.0000   0.2708
  11.000   1.5911   0.01962   0.01424  -0.0623  0.1303  0.8791  -3.6143   0.0000   0.2694
  11.200   1.6067   0.02009   0.01472  -0.0616  0.1277  0.8810  -3.6858   0.0000   0.2682
  11.400   1.6223   0.02066   0.01529  -0.0610  0.1243  0.8826  -3.7634   0.0000   0.2671
  11.600   1.6243   0.02119   0.01584  -0.0579  0.1216  0.8846  -3.8125   0.0000   0.2648
  11.800   1.6283   0.02175   0.01642  -0.0553  0.1191  0.8865  -3.8659   0.0000   0.2627
  12.000   1.6370   0.02227   0.01697  -0.0535  0.1171  0.8882  -3.9298   0.0000   0.2611
  12.200   1.6458   0.02291   0.01762  -0.0519  0.1143  0.8898  -3.9968   0.0000   0.2595
  12.400   1.6536   0.02371   0.01842  -0.0504  0.1107  0.8914  -4.0615   0.0000   0.2581
  12.600   1.6639   0.02447   0.01919  -0.0493  0.1078  0.8930  -4.1323   0.0000   0.2568
  12.800   1.6760   0.02523   0.01996  -0.0485  0.1052  0.8944  -4.2077   0.0000   0.2557
  13.000   1.6874   0.02613   0.02088  -0.0478  0.1021  0.8956  -4.2817   0.0000   0.2547
  13.200   1.6929   0.02713   0.02188  -0.0463  0.0990  0.8967  -4.3420   0.0000   0.2533
  13.400   1.6935   0.02792   0.02271  -0.0437  0.0972  0.8979  -4.3935   0.0000   0.2514
  13.600   1.6953   0.02882   0.02363  -0.0415  0.0950  0.8990  -4.4497   0.0000   0.2496
  13.800   1.6967   0.02987   0.02471  -0.0395  0.0925  0.9001  -4.5047   0.0000   0.2480
  14.000   1.6971   0.03108   0.02594  -0.0376  0.0899  0.9013  -4.5567   0.0000   0.2465
  14.200   1.7006   0.03221   0.02710  -0.0362  0.0879  0.9024  -4.6183   0.0000   0.2451
  14.400   1.7052   0.03337   0.02829  -0.0350  0.0860  0.9035  -4.6840   0.0000   0.2439
  14.600   1.7085   0.03474   0.02969  -0.0340  0.0835  0.9046  -4.7460   0.0000   0.2428
  14.800   1.7100   0.03640   0.03136  -0.0331  0.0808  0.9056  -4.8024   0.0000   0.2418
  15.000   1.7141   0.03797   0.03296  -0.0326  0.0786  0.9065  -4.8663   0.0000   0.2410
  15.200   1.7192   0.03959   0.03462  -0.0323  0.0763  0.9074  -4.9328   0.0000   0.2403
  15.400   1.7222   0.04152   0.03658  -0.0322  0.0739  0.9081  -4.9930   0.0000   0.2397
  15.600   1.7233   0.04374   0.03882  -0.0322  0.0714  0.9088  -5.0471   0.0000   0.2392
  15.800   1.7228   0.04561   0.04074  -0.0316  0.0700  0.9094  -5.0974   0.0000   0.2383
  16.000   1.7192   0.04749   0.04268  -0.0305  0.0687  0.9100  -5.1384   0.0000   0.2373
  16.200   1.7143   0.04958   0.04481  -0.0296  0.0672  0.9105  -5.1749   0.0000   0.2363
  16.400   1.7072   0.05194   0.04722  -0.0289  0.0656  0.9110  -5.2038   0.0000   0.2354
  16.600   1.6983   0.05460   0.04993  -0.0283  0.0640  0.9116  -5.2262   0.0000   0.2346
  16.800   1.6906   0.05726   0.05265  -0.0280  0.0626  0.9120  -5.2514   0.0000   0.2339
  17.000   1.6852   0.05982   0.05528  -0.0278  0.0615  0.9125  -5.2831   0.0000   0.2334
  17.200   1.6782   0.06266   0.05817  -0.0279  0.0602  0.9129  -5.3101   0.0000   0.2330
  17.400   1.6689   0.06582   0.06140  -0.0283  0.0589  0.9132  -5.3307   0.0000   0.2327
  17.600   1.6577   0.06931   0.06495  -0.0288  0.0575  0.9136  -5.3430   0.0000   0.2325
  17.800   1.6454   0.07301   0.06872  -0.0295  0.0563  0.9139  -5.3504   0.0000   0.2325
  18.000   1.6337   0.07674   0.07251  -0.0304  0.0552  0.9142  -5.3588   0.0000   0.2326
  18.200   1.6236   0.08033   0.07618  -0.0313  0.0544  0.9145  -5.3717   0.0000   0.2327
  18.400   1.6126   0.08413   0.08005  -0.0325  0.0535  0.9147  -5.3801   0.0000   0.2330
  18.600   1.6006   0.08812   0.08412  -0.0338  0.0526  0.9150  -5.3835   0.0000   0.2334
  18.800   1.5876   0.09232   0.08839  -0.0354  0.0516  0.9151  -5.3815   0.0000   0.2339
  19.000   1.5726   0.09682   0.09296  -0.0372  0.0507  0.9153  -5.3701   0.0000   0.2347
  19.200   1.5571   0.10145   0.09766  -0.0391  0.0497  0.9154  -5.3549   0.0000   0.2356
  19.400   1.5431   0.10593   0.10222  -0.0411  0.0487  0.9156  -5.3435   0.0000   0.2365
  19.600   1.5333   0.10982   0.10617  -0.0429  0.0480  0.9158  -5.3484   0.0000   0.2372
  19.800   1.5234   0.11375   0.11016  -0.0448  0.0472  0.9161  -5.3511   0.0000   0.2380
  20.000   1.5122   0.11789   0.11437  -0.0470  0.0463  0.9163  -5.3467   0.0000   0.2391
  20.200   1.5005   0.12213   0.11867  -0.0493  0.0453  0.9166  -5.3400   0.0000   0.2402
  20.400   1.4889   0.12643   0.12303  -0.0517  0.0442  0.9168  -5.3326   0.0000   0.2415
  20.600   1.4792   0.13049   0.12713  -0.0541  0.0431  0.9171  -5.3323   0.0000   0.2427
  20.800   1.4714   0.13434   0.13103  -0.0565  0.0422  0.9174  -5.3388   0.0000   0.2440
  21.000   1.4655   0.13793   0.13468  -0.0589  0.0414  0.9177  -5.3529   0.0000   0.2451
  21.200   1.4601   0.14147   0.13826  -0.0613  0.0404  0.9180  -5.3681   0.0000   0.2463
  21.400   1.4531   0.14530   0.14214  -0.0640  0.0395  0.9183  -5.3740   0.0000   0.2477
  21.600   1.4479   0.14890   0.14577  -0.0666  0.0384  0.9185  -5.3873   0.0000   0.2490
  21.800   1.4410   0.15285   0.14976  -0.0696  0.0374  0.9188  -5.3894   0.0000   0.2507
  22.000   1.4402   0.15586   0.15281  -0.0720  0.0367  0.9191  -5.4222   0.0000   0.2517
  22.200   1.4386   0.15905   0.15604  -0.0746  0.0360  0.9194  -5.4495   0.0000   0.2530
  22.400   1.4364   0.16237   0.15941  -0.0774  0.0352  0.9197  -5.4723   0.0000   0.2543
  22.600   1.4358   0.16548   0.16255  -0.0801  0.0343  0.9200  -5.5027   0.0000   0.2556
  22.800   1.4313   0.16930   0.16640  -0.0834  0.0334  0.9203  -5.5096   0.0000   0.2574
  23.000   1.4301   0.17259   0.16972  -0.0864  0.0325  0.9206  -5.5334   0.0000   0.2589
  23.200   1.4298   0.17576   0.17293  -0.0894  0.0318  0.9209  -5.5617   0.0000   0.2603
  23.400   1.4275   0.17853   0.17574  -0.0915  0.0312  0.9212  -5.5840   0.0000   0.2613
  23.600   1.4247   0.18092   0.17816  -0.0931  0.0305  0.9215  -5.6076   0.0000   0.2619
  23.800   1.4195   0.18384   0.18111  -0.0953  0.0298  0.9217  -5.6146   0.0000   0.2630
  24.000   1.4152   0.18668   0.18398  -0.0974  0.0291  0.9219  -5.6268   0.0000   0.2641
  24.200   1.4125   0.18927   0.18659  -0.0994  0.0284  0.9221  -5.6478   0.0000   0.2649
  24.400   1.4082   0.19217   0.18952  -0.1017  0.0279  0.9223  -5.6574   0.0000   0.2661
  24.600   1.4071   0.19450   0.19189  -0.1036  0.0274  0.9225  -5.6865   0.0000   0.2668
  24.800   1.4068   0.19667   0.19409  -0.1054  0.0269  0.9228  -5.7211   0.0000   0.2674
  25.000   1.4053   0.19902   0.19646  -0.1073  0.0263  0.9230  -5.7475   0.0000   0.2682


