xflr5 v6.47

 Calculated polar for: NACA24018_theta30_Ku4.5_Kl0.5_d0.21_delta5.84

 1 1 Reynolds number fixed          Mach number fixed         

 xtrf =   1.000 (top)        1.000 (bottom)
 Mach =   0.000     Re =     3.200 e 6     Ncrit =   5.000

  alpha     CL        CD       CDp       Cm    Top Xtr Bot Xtr   Cpmin    Chinge    XCp    
 ------- -------- --------- --------- -------- ------- ------- -------- --------- ---------
 -15.000  -0.7606   0.02552   0.02142  -0.1205  0.8770  0.0280  -5.7310   0.0000   0.0655
 -14.800  -0.7366   0.02537   0.02127  -0.1214  0.8769  0.0283  -5.5826   0.0000   0.0589
 -14.600  -0.7121   0.02525   0.02115  -0.1224  0.8768  0.0286  -5.4339   0.0000   0.0518
 -14.400  -0.6873   0.02514   0.02104  -0.1234  0.8768  0.0288  -5.2860   0.0000   0.0440
 -14.200  -0.6620   0.02504   0.02095  -0.1244  0.8767  0.0294  -5.1380   0.0000   0.0353
 -14.000  -0.6361   0.02494   0.02086  -0.1256  0.8767  0.0300  -4.9931   0.0000   0.0256
 -13.800  -0.6082   0.02480   0.02074  -0.1270  0.8765  0.0305  -4.8455   0.0000   0.0138
 -13.600  -0.5771   0.02458   0.02052  -0.1290  0.8763  0.0311  -4.6900   0.0000  -0.0013
 -13.400  -0.5428   0.02425   0.02020  -0.1314  0.8761  0.0317  -4.5266   0.0000  -0.0207
 -13.200  -0.5051   0.02381   0.01976  -0.1343  0.8757  0.0321  -4.3558   0.0000  -0.0456
 -13.000  -0.4649   0.02327   0.01923  -0.1377  0.8754  0.0328  -4.1803   0.0000  -0.0772
 -12.800  -0.4266   0.02280   0.01877  -0.1408  0.8751  0.0339  -4.0131   0.0000  -0.1127
 -12.600  -0.3901   0.02240   0.01839  -0.1436  0.8749  0.0349  -3.8532   0.0000  -0.1525
 -12.400  -0.3533   0.02198   0.01798  -0.1463  0.8747  0.0357  -3.6952   0.0000  -0.2010
 -12.200  -0.3123   0.02141   0.01741  -0.1498  0.8743  0.0365  -3.5284   0.0000  -0.2700
 -12.000  -0.3087   0.02214   0.01816  -0.1470  0.8703  0.0371  -3.4626   0.0000  -0.2659
 -10.800  -0.1487   0.02252   0.01864  -0.1532  0.8608  0.0432  -2.7550   0.0000  -0.8484
 -10.600  -0.1371   0.02319   0.01933  -0.1517  0.8544  0.0438  -2.6785   0.0000  -0.9275
 -10.400  -0.1150   0.02348   0.01961  -0.1519  0.8248  0.0448  -2.5788   0.0000  -1.1527
 -10.200  -0.0297   0.02126   0.01736  -0.1628  0.8195  0.0478  -2.3475   0.0000  -5.5388
 -10.000  -0.0231   0.02160   0.01719  -0.1602  0.7121  0.0485  -2.2886   0.0000  -7.0735
  -9.800  -0.0057   0.02200   0.01747  -0.1596  0.6759  0.0498  -2.2080   0.0000  -29.2627
  -9.600   0.0164   0.02226   0.01763  -0.1597  0.6464  0.0513  -2.1187   0.0000  10.5013
  -9.400   0.0392   0.02247   0.01774  -0.1600  0.6175  0.0526  -2.0291   0.0000   4.5323
  -9.200   0.0641   0.02263   0.01781  -0.1607  0.5933  0.0540  -1.9399   0.0000   2.8751
  -9.000   0.0905   0.02277   0.01789  -0.1616  0.5707  0.0560  -1.8500   0.0000   2.1162
  -8.800   0.1168   0.02289   0.01794  -0.1625  0.5495  0.0577  -1.7617   0.0000   1.7011
  -8.600   0.1442   0.02299   0.01798  -0.1635  0.5320  0.0599  -1.6726   0.0000   1.4304
  -8.400   0.1722   0.02309   0.01804  -0.1647  0.5160  0.0625  -1.5838   0.0000   1.2436
  -8.200   0.2000   0.02319   0.01810  -0.1658  0.5019  0.0651  -1.4968   0.0000   1.1097
  -8.000   0.2276   0.02331   0.01818  -0.1669  0.4875  0.0682  -1.4115   0.0000   1.0090
  -7.800   0.2543   0.02343   0.01825  -0.1678  0.4709  0.0709  -1.3291   0.0000   0.9318
  -7.600   0.2813   0.02357   0.01834  -0.1687  0.4539  0.0741  -1.2477   0.0000   0.8688
  -7.400   0.3083   0.02371   0.01844  -0.1697  0.4395  0.0774  -1.1711   0.0000   0.8169
  -7.200   0.3358   0.02386   0.01856  -0.1707  0.4262  0.0815  -1.0989   0.0000   0.7728
  -7.000   0.3630   0.02402   0.01867  -0.1717  0.4118  0.0856  -1.0281   0.0000   0.7355
  -6.800   0.3900   0.02417   0.01878  -0.1726  0.3980  0.0902  -0.9589   0.0000   0.7036
  -6.600   0.4183   0.02435   0.01895  -0.1738  0.3877  0.0965  -0.8896   0.0000   0.6752
  -6.400   0.4462   0.02452   0.01909  -0.1749  0.3759  0.1029  -0.8303   0.0000   0.6504
  -6.200   0.4740   0.02471   0.01926  -0.1760  0.3670  0.1095  -0.8581   0.0000   0.6286
  -6.000   0.5014   0.02488   0.01941  -0.1769  0.3562  0.1161  -0.8858   0.0000   0.6094
  -5.800   0.5303   0.02509   0.01962  -0.1782  0.3481  0.1258  -0.9148   0.0000   0.5917
  -5.400   0.5888   0.02553   0.02006  -0.1809  0.3335  0.1490  -0.9751   0.0000   0.5613
  -5.200   0.6187   0.02577   0.02030  -0.1823  0.3257  0.1640  -1.0066   0.0000   0.5481
  -4.800   0.6894   0.02646   0.02110  -0.1873  0.3136  0.2233  -1.0800   0.0000   0.5239
  -4.600   0.7276   0.02688   0.02157  -0.1903  0.3072  0.2626  -1.1198   0.0000   0.5133
  -4.400   0.7753   0.02749   0.02231  -0.1952  0.3015  0.3231  -1.1671   0.0000   0.5029
  -4.200   0.8139   0.02795   0.02284  -0.1982  0.2976  0.3612  -1.2080   0.0000   0.4942
  -4.000   0.8464   0.02829   0.02319  -0.2001  0.2919  0.3842  -1.2446   0.0000   0.4867
  -3.800   0.8766   0.02858   0.02348  -0.2015  0.2854  0.4016  -1.2795   0.0000   0.4798
  -3.600   0.9076   0.02892   0.02384  -0.2031  0.2820  0.4209  -1.3154   0.0000   0.4733
  -3.400   0.9372   0.02923   0.02416  -0.2044  0.2779  0.4374  -1.3504   0.0000   0.4672
  -3.200   0.9687   0.02958   0.02452  -0.2061  0.2734  0.4572  -1.3901   0.0000   0.4615
  -3.000   1.0007   0.02997   0.02492  -0.2078  0.2689  0.4778  -1.4306   0.0000   0.4561
  -2.800   1.0275   0.03025   0.02522  -0.2086  0.2670  0.4896  -1.4670   0.0000   0.4511
  -2.600   1.0556   0.03056   0.02554  -0.2096  0.2640  0.5005  -1.5047   0.0000   0.4463
  -2.400   1.0794   0.03077   0.02573  -0.2098  0.2598  0.5062  -1.5389   0.0000   0.4418
  -2.200   1.1017   0.03095   0.02586  -0.2097  0.2543  0.5094  -1.5719   0.0000   0.4375
  -2.000   1.1265   0.03120   0.02611  -0.2101  0.2515  0.5149  -1.6073   0.0000   0.4333
  -1.800   1.1509   0.03144   0.02635  -0.2104  0.2491  0.5198  -1.6429   0.0000   0.4293
  -1.600   1.1740   0.03165   0.02655  -0.2104  0.2463  0.5238  -1.6801   0.0000   0.4254
  -1.400   1.1963   0.03185   0.02673  -0.2104  0.2432  0.5272  -1.7167   0.0000   0.4217
  -1.200   1.2185   0.03205   0.02691  -0.2103  0.2395  0.5305  -1.7535   0.0000   0.4181
  -1.000   1.2434   0.03233   0.02719  -0.2107  0.2370  0.5365  -1.7931   0.0000   0.4147
  -0.800   1.2670   0.03259   0.02745  -0.2108  0.2352  0.5414  -1.8317   0.0000   0.4114
  -0.600   1.2893   0.03281   0.02766  -0.2107  0.2326  0.5453  -1.8692   0.0000   0.4081
  -0.400   1.3108   0.03302   0.02785  -0.2105  0.2289  0.5482  -1.9061   0.0000   0.4050
  -0.200   1.3327   0.03325   0.02805  -0.2103  0.2243  0.5514  -1.9435   0.0000   0.4019
   0.000   1.3565   0.03353   0.02833  -0.2105  0.2218  0.5563  -1.9832   0.0000   0.3990
   0.200   1.3797   0.03381   0.02861  -0.2106  0.2194  0.5612  -2.0223   0.0000   0.3961
   0.400   1.4015   0.03406   0.02885  -0.2104  0.2163  0.5655  -2.0620   0.0000   0.3933
   0.600   1.4224   0.03429   0.02905  -0.2100  0.2128  0.5686  -2.1039   0.0000   0.3906
   0.800   1.4445   0.03455   0.02931  -0.2099  0.2092  0.5725  -2.1474   0.0000   0.3880
   1.000   1.4674   0.03485   0.02961  -0.2099  0.2076  0.5770  -2.1922   0.0000   0.3854
   1.200   1.4892   0.03513   0.02989  -0.2097  0.2058  0.5810  -2.2360   0.0000   0.3829
   1.400   1.5102   0.03539   0.03015  -0.2094  0.2033  0.5849  -2.2791   0.0000   0.3804
   1.600   1.5304   0.03565   0.03038  -0.2089  0.2001  0.5882  -2.3214   0.0000   0.3780
   1.800   1.5512   0.03593   0.03065  -0.2086  0.1958  0.5918  -2.3646   0.0000   0.3756
   2.000   1.5736   0.03626   0.03098  -0.2085  0.1937  0.5966  -2.4101   0.0000   0.3733
   2.200   1.5949   0.03656   0.03128  -0.2082  0.1911  0.6008  -2.4544   0.0000   0.3711
   2.400   1.6151   0.03686   0.03156  -0.2078  0.1877  0.6047  -2.4984   0.0000   0.3689
   2.600   1.6343   0.03715   0.03183  -0.2071  0.1837  0.6078  -2.5425   0.0000   0.3667
   2.800   1.6539   0.03742   0.03210  -0.2065  0.1812  0.6104  -2.5881   0.0000   0.3645
   3.000   1.6755   0.03777   0.03245  -0.2063  0.1790  0.6147  -2.6380   0.0000   0.3624
   3.200   1.6960   0.03811   0.03278  -0.2059  0.1760  0.6184  -2.6880   0.0000   0.3604
   3.400   1.7154   0.03845   0.03311  -0.2053  0.1722  0.6218  -2.7384   0.0000   0.3584
   3.600   1.7346   0.03876   0.03341  -0.2047  0.1691  0.6252  -2.7889   0.0000   0.3564
   3.800   1.7535   0.03906   0.03371  -0.2040  0.1671  0.6281  -2.8406   0.0000   0.3544
   4.000   1.7722   0.03938   0.03403  -0.2033  0.1642  0.6307  -2.8947   0.0000   0.3524
   4.200   1.7921   0.03982   0.03444  -0.2028  0.1598  0.6350  -2.9511   0.0000   0.3505
   4.400   1.8116   0.04021   0.03483  -0.2022  0.1564  0.6390  -3.0073   0.0000   0.3487
   4.600   1.8301   0.04059   0.03520  -0.2015  0.1529  0.6426  -3.0621   0.0000   0.3468
   4.800   1.8473   0.04099   0.03558  -0.2006  0.1494  0.6455  -3.1161   0.0000   0.3449
   5.000   1.8644   0.04135   0.03594  -0.1996  0.1464  0.6477  -3.1753   0.0000   0.3431
   5.200   1.8815   0.04170   0.03629  -0.1986  0.1442  0.6494  -3.2349   0.0000   0.3412
   5.400   1.8990   0.04216   0.03673  -0.1977  0.1405  0.6524  -3.2957   0.0000   0.3395
   5.600   1.9159   0.04271   0.03726  -0.1968  0.1359  0.6561  -3.3559   0.0000   0.3377
   5.800   1.9326   0.04322   0.03778  -0.1958  0.1329  0.6594  -3.4161   0.0000   0.3359
   6.000   1.9477   0.04377   0.03831  -0.1945  0.1293  0.6623  -3.4770   0.0000   0.3341
   6.200   1.9626   0.04430   0.03883  -0.1932  0.1260  0.6647  -3.5431   0.0000   0.3323
   6.400   1.9782   0.04477   0.03931  -0.1921  0.1240  0.6669  -3.6111   0.0000   0.3306
   6.600   1.9925   0.04530   0.03983  -0.1907  0.1203  0.6688  -3.6773   0.0000   0.3289
   6.800   2.0063   0.04590   0.04041  -0.1893  0.1160  0.6708  -3.7450   0.0000   0.3271
   7.000   2.0217   0.04652   0.04103  -0.1881  0.1122  0.6740  -3.8190   0.0000   0.3255
   7.200   2.0351   0.04723   0.04171  -0.1867  0.1074  0.6767  -3.8917   0.0000   0.3238
   7.400   2.0494   0.04786   0.04234  -0.1854  0.1042  0.6794  -3.9734   0.0000   0.3221
   7.600   2.0602   0.04870   0.04316  -0.1836  0.0998  0.6819  -4.0491   0.0000   0.3203
   7.800   2.0724   0.04943   0.04389  -0.1820  0.0970  0.6843  -4.1282   0.0000   0.3186
   8.000   2.0834   0.05021   0.04467  -0.1802  0.0935  0.6862  -4.2053   0.0000   0.3169
   8.200   2.0948   0.05096   0.04541  -0.1785  0.0906  0.6877  -4.2836   0.0000   0.3153
   8.400   2.1066   0.05166   0.04612  -0.1769  0.0882  0.6889  -4.3634   0.0000   0.3136
   8.600   2.1169   0.05250   0.04695  -0.1751  0.0851  0.6903  -4.4402   0.0000   0.3120
   8.800   2.1272   0.05342   0.04788  -0.1734  0.0827  0.6927  -4.5177   0.0000   0.3103
   9.000   2.1368   0.05442   0.04889  -0.1715  0.0798  0.6951  -4.5942   0.0000   0.3087
   9.200   2.1455   0.05547   0.04994  -0.1696  0.0766  0.6975  -4.6687   0.0000   0.3070
   9.400   2.1553   0.05642   0.05089  -0.1679  0.0739  0.6997  -4.7480   0.0000   0.3054
   9.600   2.1614   0.05765   0.05212  -0.1657  0.0705  0.7017  -4.8247   0.0000   0.3037
   9.800   2.1690   0.05877   0.05325  -0.1637  0.0682  0.7036  -4.9057   0.0000   0.3021
  10.000   2.1752   0.06000   0.05448  -0.1616  0.0653  0.7052  -4.9833   0.0000   0.3005
  10.200   2.1827   0.06112   0.05562  -0.1597  0.0632  0.7068  -5.0665   0.0000   0.2989
  10.400   2.1875   0.06247   0.05699  -0.1576  0.0610  0.7080  -5.1440   0.0000   0.2973
  10.600   2.1924   0.06383   0.05836  -0.1555  0.0587  0.7089  -5.2216   0.0000   0.2957
  10.800   2.1982   0.06513   0.05968  -0.1536  0.0570  0.7104  -5.3024   0.0000   0.2942
  11.000   2.2012   0.06673   0.06130  -0.1514  0.0547  0.7122  -5.3755   0.0000   0.2926
  11.200   2.2052   0.06826   0.06285  -0.1495  0.0527  0.7139  -5.4518   0.0000   0.2911
  11.400   2.2083   0.06989   0.06451  -0.1475  0.0509  0.7155  -5.5258   0.0000   0.2896
  11.600   2.2096   0.07171   0.06635  -0.1455  0.0491  0.7172  -5.5943   0.0000   0.2882
  11.800   2.2129   0.07335   0.06803  -0.1437  0.0479  0.7189  -5.6689   0.0000   0.2868
  12.000   2.2153   0.07511   0.06982  -0.1419  0.0466  0.7206  -5.7419   0.0000   0.2854
  12.200   2.2153   0.07714   0.07188  -0.1401  0.0451  0.7221  -5.8088   0.0000   0.2841
  12.400   2.2154   0.07917   0.07395  -0.1385  0.0438  0.7234  -5.8763   0.0000   0.2828
  12.600   2.2165   0.08110   0.07592  -0.1370  0.0426  0.7246  -5.9468   0.0000   0.2815
  12.800   2.2152   0.08333   0.07817  -0.1355  0.0411  0.7255  -6.0094   0.0000   0.2803
  13.000   2.2124   0.08575   0.08064  -0.1340  0.0397  0.7264  -6.0668   0.0000   0.2792
  13.200   2.2112   0.08803   0.08296  -0.1328  0.0386  0.7272  -6.1291   0.0000   0.2781
  13.400   2.2089   0.09044   0.08541  -0.1318  0.0374  0.7279  -6.1876   0.0000   0.2771
  13.600   2.2055   0.09299   0.08800  -0.1308  0.0363  0.7289  -6.2417   0.0000   0.2762
  13.800   2.2031   0.09543   0.09049  -0.1300  0.0355  0.7305  -6.3037   0.0000   0.2753
  14.000   2.2001   0.09799   0.09310  -0.1293  0.0347  0.7319  -6.3627   0.0000   0.2744
  14.200   2.1959   0.10068   0.09585  -0.1288  0.0338  0.7333  -6.4171   0.0000   0.2737
  14.400   2.1903   0.10355   0.09877  -0.1285  0.0328  0.7344  -6.4654   0.0000   0.2731
  14.600   2.1861   0.10625   0.10153  -0.1283  0.0321  0.7355  -6.5181   0.0000   0.2725
  14.800   2.1820   0.10895   0.10428  -0.1282  0.0314  0.7365  -6.5708   0.0000   0.2719
  15.000   2.1765   0.11186   0.10725  -0.1283  0.0308  0.7375  -6.6168   0.0000   0.2715
  15.200   2.1699   0.11492   0.11037  -0.1287  0.0301  0.7385  -6.6578   0.0000   0.2711
  15.400   2.1624   0.11811   0.11362  -0.1292  0.0294  0.7395  -6.6944   0.0000   0.2709
  15.600   2.1563   0.12114   0.11670  -0.1298  0.0288  0.7406  -6.7351   0.0000   0.2707
  15.800   2.1519   0.12394   0.11955  -0.1305  0.0283  0.7417  -6.7823   0.0000   0.2705
  16.000   2.1454   0.12702   0.12270  -0.1314  0.0278  0.7427  -6.8200   0.0000   0.2704
  16.200   2.1376   0.13032   0.12607  -0.1326  0.0272  0.7436  -6.8504   0.0000   0.2704
  16.400   2.1286   0.13378   0.12958  -0.1340  0.0266  0.7443  -6.8748   0.0000   0.2706
  16.600   2.1189   0.13733   0.13320  -0.1356  0.0260  0.7450  -6.8947   0.0000   0.2709
  16.800   2.1115   0.14055   0.13648  -0.1371  0.0255  0.7456  -6.9238   0.0000   0.2711
  17.000   2.1051   0.14362   0.13960  -0.1386  0.0251  0.7461  -6.9564   0.0000   0.2713
  17.200   2.0963   0.14708   0.14312  -0.1404  0.0247  0.7466  -6.9763   0.0000   0.2718
  17.400   2.0870   0.15059   0.14671  -0.1425  0.0243  0.7470  -6.9929   0.0000   0.2723
  17.600   2.0779   0.15403   0.15020  -0.1445  0.0238  0.7478  -7.0094   0.0000   0.2728
  17.800   2.0695   0.15737   0.15360  -0.1466  0.0234  0.7488  -7.0276   0.0000   0.2733
  18.000   2.0588   0.16109   0.15739  -0.1491  0.0229  0.7498  -7.0327   0.0000   0.2741
  18.200   2.0502   0.16448   0.16084  -0.1514  0.0227  0.7508  -7.0477   0.0000   0.2748
  18.400   2.0447   0.16738   0.16379  -0.1533  0.0223  0.7520  -7.0772   0.0000   0.2751
  18.600   2.0354   0.17090   0.16737  -0.1559  0.0220  0.7530  -7.0852   0.0000   0.2760
  18.800   2.0295   0.17382   0.17035  -0.1580  0.0216  0.7541  -7.1112   0.0000   0.2765
  19.000   2.0201   0.17734   0.17393  -0.1608  0.0212  0.7551  -7.1194   0.0000   0.2774
  19.200   2.0114   0.18073   0.17738  -0.1635  0.0208  0.7560  -7.1308   0.0000   0.2783
  19.400   2.0041   0.18390   0.18059  -0.1661  0.0204  0.7569  -7.1490   0.0000   0.2790
  19.600   1.9964   0.18713   0.18387  -0.1688  0.0201  0.7578  -7.1637   0.0000   0.2799
  19.800   1.9914   0.18992   0.18671  -0.1711  0.0197  0.7587  -7.1931   0.0000   0.2805
  20.000   1.9874   0.19254   0.18937  -0.1733  0.0194  0.7595  -7.2276   0.0000   0.2809
  20.200   1.9793   0.19585   0.19274  -0.1763  0.0190  0.7603  -7.2359   0.0000   0.2820
  20.400   1.9755   0.19841   0.19533  -0.1785  0.0186  0.7611  -7.2703   0.0000   0.2825
  20.600   1.9664   0.20186   0.19883  -0.1817  0.0182  0.7618  -7.2703   0.0000   0.2837
  20.800   1.9623   0.20448   0.20148  -0.1842  0.0177  0.7626  -7.3004   0.0000   0.2843
  21.000   1.9563   0.20741   0.20446  -0.1870  0.0175  0.7633  -7.3176   0.0000   0.2851
  21.200   1.9527   0.20992   0.20701  -0.1893  0.0172  0.7639  -7.3500   0.0000   0.2857
  21.400   1.9505   0.21220   0.20932  -0.1915  0.0168  0.7645  -7.3902   0.0000   0.2861
  21.600   1.9438   0.21525   0.21242  -0.1946  0.0165  0.7649  -7.3994   0.0000   0.2872
  21.800   1.9404   0.21766   0.21487  -0.1970  0.0162  0.7658  -7.4308   0.0000   0.2877
  22.000   1.9374   0.21998   0.21722  -0.1993  0.0158  0.7668  -7.4648   0.0000   0.2882
  22.200   1.9299   0.22311   0.22040  -0.2026  0.0155  0.7677  -7.4654   0.0000   0.2894
  22.400   1.9278   0.22527   0.22259  -0.2048  0.0153  0.7686  -7.5038   0.0000   0.2898
  22.600   1.9267   0.22725   0.22460  -0.2068  0.0151  0.7695  -7.5484   0.0000   0.2901
  22.800   1.9206   0.23010   0.22750  -0.2099  0.0149  0.7703  -7.5562   0.0000   0.2912
  23.000   1.9190   0.23214   0.22957  -0.2120  0.0146  0.7712  -7.5963   0.0000   0.2915
  23.200   1.9175   0.23414   0.23160  -0.2142  0.0144  0.7720  -7.6370   0.0000   0.2918
  23.400   1.9112   0.23702   0.23453  -0.2174  0.0141  0.7728  -7.6400   0.0000   0.2930
  23.600   1.9090   0.23913   0.23666  -0.2198  0.0139  0.7736  -7.6741   0.0000   0.2934
  23.800   1.9070   0.24118   0.23874  -0.2221  0.0136  0.7745  -7.7094   0.0000   0.2939
  24.000   1.9007   0.24407   0.24167  -0.2254  0.0134  0.7753  -7.7079   0.0000   0.2951
  24.200   1.8992   0.24600   0.24363  -0.2277  0.0132  0.7762  -7.7454   0.0000   0.2955
  24.400   1.8986   0.24778   0.24544  -0.2297  0.0130  0.7772  -7.7904   0.0000   0.2957
  24.600   1.8945   0.25023   0.24793  -0.2326  0.0128  0.7780  -7.8047   0.0000   0.2965
  24.800   1.8923   0.25229   0.25003  -0.2351  0.0126  0.7788  -7.8344   0.0000   0.2970
  25.000   1.8914   0.25409   0.25185  -0.2373  0.0124  0.7795  -7.8752   0.0000   0.2973


