xflr5 v6.47

 Calculated polar for: NACA24018_theta30_Ku4.5_Kl0.5_d0.21_delta5.84

 1 1 Reynolds number fixed          Mach number fixed         

 xtrf =   1.000 (top)        1.000 (bottom)
 Mach =   0.000     Re =     0.800 e 6     Ncrit =   5.000

  alpha     CL        CD       CDp       Cm    Top Xtr Bot Xtr   Cpmin    Chinge    XCp    
 ------- -------- --------- --------- -------- ------- ------- -------- --------- ---------
 -15.000  -0.8830   0.03823   0.03321  -0.0877  0.9071  0.0342  -6.0284   0.0000   0.1267
 -14.600  -0.8626   0.03650   0.03142  -0.0867  0.9017  0.0349  -5.8338   0.0000   0.1262
 -14.400  -0.8426   0.03586   0.03075  -0.0876  0.9005  0.0354  -5.7033   0.0000   0.1230
 -14.200  -0.8205   0.03532   0.03018  -0.0887  0.8997  0.0358  -5.5662   0.0000   0.1189
 -14.000  -0.7968   0.03481   0.02965  -0.0901  0.8992  0.0363  -5.4253   0.0000   0.1140
 -13.800  -0.7805   0.03394   0.02878  -0.0903  0.8944  0.0368  -5.3091   0.0000   0.1116
 -13.600  -0.7569   0.03345   0.02829  -0.0914  0.8933  0.0374  -5.1689   0.0000   0.1064
 -13.400  -0.7317   0.03304   0.02786  -0.0928  0.8925  0.0381  -5.0245   0.0000   0.1003
 -13.200  -0.7049   0.03268   0.02749  -0.0944  0.8918  0.0389  -4.8769   0.0000   0.0932
 -13.000  -0.6770   0.03237   0.02715  -0.0960  0.8913  0.0396  -4.7339   0.0000   0.0851
 -12.800  -0.6480   0.03207   0.02685  -0.0979  0.8909  0.0402  -4.5893   0.0000   0.0757
 -12.600  -0.6298   0.03152   0.02630  -0.0980  0.8868  0.0408  -4.4782   0.0000   0.0711
 -12.400  -0.6024   0.03121   0.02599  -0.0995  0.8856  0.0416  -4.3400   0.0000   0.0612
 -12.200  -0.5738   0.03094   0.02572  -0.1012  0.8848  0.0425  -4.2001   0.0000   0.0497
 -12.000  -0.5444   0.03071   0.02548  -0.1029  0.8841  0.0435  -4.0596   0.0000   0.0366
 -11.800  -0.5141   0.03049   0.02525  -0.1048  0.8835  0.0445  -3.9184   0.0000   0.0214
 -11.600  -0.4825   0.03027   0.02504  -0.1069  0.8831  0.0456  -3.7747   0.0000   0.0030
 -11.400  -0.4505   0.03007   0.02485  -0.1089  0.8827  0.0468  -3.6318   0.0000  -0.0183
 -11.200  -0.4302   0.02982   0.02460  -0.1091  0.8792  0.0478  -3.5232   0.0000  -0.0304
 -11.000  -0.4013   0.02963   0.02440  -0.1107  0.8777  0.0488  -3.3926   0.0000  -0.0535
 -10.800  -0.3703   0.02945   0.02424  -0.1126  0.8767  0.0501  -3.2595   0.0000  -0.0830
 -10.600  -0.3390   0.02928   0.02408  -0.1145  0.8760  0.0517  -3.1312   0.0000  -0.1182
 -10.400  -0.3070   0.02911   0.02390  -0.1164  0.8753  0.0532  -3.0035   0.0000  -0.1616
 -10.200  -0.2713   0.02886   0.02367  -0.1190  0.8746  0.0549  -2.8685   0.0000  -0.2240
 -10.000  -0.2336   0.02854   0.02336  -0.1218  0.8740  0.0568  -2.7311   0.0000  -0.3108
  -9.000  -0.0997   0.02796   0.02287  -0.1272  0.8591  0.0664  -2.2102   0.0000  -1.1012
  -8.000   0.0241   0.02859   0.02360  -0.1306  0.8062  0.0799  -1.7634   0.0000   5.9220
  -7.800   0.0665   0.02807   0.02308  -0.1340  0.8007  0.0846  -1.6474   0.0000   2.3524
  -7.600   0.1158   0.02723   0.02223  -0.1385  0.7913  0.0906  -1.5216   0.0000   1.4927
  -7.400   0.1780   0.02583   0.02078  -0.1452  0.7769  0.0989  -1.3772   0.0000   1.0945
  -7.200   0.2422   0.02433   0.01913  -0.1524  0.7475  0.1094  -1.2371   0.0000   0.8991
  -7.000   0.2754   0.02408   0.01868  -0.1544  0.7032  0.1176  -1.1531   0.0000   0.8271
  -6.800   0.2987   0.02433   0.01878  -0.1547  0.6665  0.1256  -1.0875   0.0000   0.7824
  -6.400   0.3496   0.02493   0.01921  -0.1563  0.6123  0.1476  -0.9530   0.0000   0.7078
  -6.200   0.3776   0.02522   0.01945  -0.1575  0.5894  0.1623  -0.8858   0.0000   0.6765
  -6.000   0.4087   0.02554   0.01975  -0.1594  0.5660  0.1842  -0.8237   0.0000   0.6480
  -5.800   0.4442   0.02593   0.02014  -0.1621  0.5415  0.2185  -0.8563   0.0000   0.6216
  -5.600   0.4986   0.02661   0.02094  -0.1686  0.5145  0.3000  -0.9018   0.0000   0.5935
  -5.400   0.5531   0.02736   0.02178  -0.1749  0.4909  0.3748  -0.9489   0.0000   0.5706
  -5.200   0.5911   0.02785   0.02226  -0.1780  0.4704  0.4074  -0.9858   0.0000   0.5546
  -5.000   0.6240   0.02826   0.02262  -0.1800  0.4525  0.4294  -1.0194   0.0000   0.5413
  -4.800   0.6560   0.02864   0.02296  -0.1818  0.4371  0.4471  -1.0531   0.0000   0.5294
  -4.600   0.6866   0.02900   0.02329  -0.1834  0.4230  0.4614  -1.0870   0.0000   0.5188
  -4.400   0.7155   0.02933   0.02357  -0.1846  0.4095  0.4743  -1.1198   0.0000   0.5092
  -4.200   0.7453   0.02969   0.02387  -0.1860  0.3961  0.4900  -1.1534   0.0000   0.5003
  -4.000   0.7769   0.03009   0.02426  -0.1877  0.3852  0.5054  -1.1888   0.0000   0.4919
  -3.800   0.8072   0.03048   0.02461  -0.1892  0.3749  0.5197  -1.2234   0.0000   0.4842
  -3.600   0.8368   0.03086   0.02496  -0.1905  0.3655  0.5331  -1.2576   0.0000   0.4770
  -3.400   0.8641   0.03119   0.02525  -0.1914  0.3564  0.5429  -1.2903   0.0000   0.4705
  -3.200   0.8892   0.03146   0.02548  -0.1918  0.3491  0.5488  -1.3214   0.0000   0.4644
  -3.000   0.9129   0.03171   0.02570  -0.1920  0.3421  0.5532  -1.3540   0.0000   0.4586
  -2.800   0.9365   0.03196   0.02593  -0.1922  0.3365  0.5576  -1.3870   0.0000   0.4532
  -2.600   0.9603   0.03221   0.02616  -0.1924  0.3311  0.5622  -1.4203   0.0000   0.4480
  -2.400   0.9841   0.03248   0.02639  -0.1926  0.3251  0.5669  -1.4538   0.0000   0.4430
  -2.200   1.0074   0.03274   0.02662  -0.1928  0.3197  0.5711  -1.4870   0.0000   0.4383
  -2.000   1.0303   0.03299   0.02686  -0.1928  0.3147  0.5754  -1.5201   0.0000   0.4337
  -1.800   1.0531   0.03325   0.02710  -0.1928  0.3093  0.5797  -1.5532   0.0000   0.4294
  -1.400   1.0992   0.03381   0.02760  -0.1930  0.3002  0.5880  -1.6219   0.0000   0.4212
  -1.200   1.1217   0.03407   0.02786  -0.1929  0.2965  0.5920  -1.6581   0.0000   0.4174
  -1.000   1.1434   0.03432   0.02811  -0.1927  0.2926  0.5964  -1.6939   0.0000   0.4137
  -0.800   1.1654   0.03460   0.02837  -0.1926  0.2886  0.6007  -1.7301   0.0000   0.4101
  -0.600   1.1877   0.03490   0.02865  -0.1926  0.2850  0.6047  -1.7669   0.0000   0.4066
  -0.400   1.2107   0.03520   0.02895  -0.1926  0.2816  0.6084  -1.8044   0.0000   0.4033
  -0.200   1.2318   0.03547   0.02921  -0.1923  0.2776  0.6119  -1.8403   0.0000   0.4001
   0.000   1.2520   0.03573   0.02947  -0.1919  0.2736  0.6159  -1.8756   0.0000   0.3969
   0.200   1.2727   0.03603   0.02975  -0.1915  0.2696  0.6200  -1.9115   0.0000   0.3938
   0.400   1.2946   0.03634   0.03006  -0.1914  0.2668  0.6241  -1.9487   0.0000   0.3909
   0.600   1.3168   0.03667   0.03039  -0.1913  0.2639  0.6276  -1.9879   0.0000   0.3880
   0.800   1.3378   0.03698   0.03070  -0.1910  0.2608  0.6310  -2.0264   0.0000   0.3852
   1.000   1.3563   0.03723   0.03096  -0.1903  0.2576  0.6345  -2.0651   0.0000   0.3824
   1.200   1.3753   0.03753   0.03125  -0.1896  0.2543  0.6382  -2.1048   0.0000   0.3798
   1.400   1.3956   0.03785   0.03157  -0.1892  0.2515  0.6419  -2.1460   0.0000   0.3771
   1.600   1.4166   0.03818   0.03191  -0.1889  0.2485  0.6453  -2.1883   0.0000   0.3746
   1.800   1.4380   0.03857   0.03229  -0.1887  0.2451  0.6484  -2.2314   0.0000   0.3722
   2.000   1.4568   0.03890   0.03261  -0.1881  0.2417  0.6514  -2.2716   0.0000   0.3698
   2.200   1.4729   0.03920   0.03291  -0.1869  0.2384  0.6545  -2.3089   0.0000   0.3673
   2.400   1.4904   0.03950   0.03324  -0.1860  0.2360  0.6577  -2.3479   0.0000   0.3649
   2.600   1.5089   0.03985   0.03361  -0.1853  0.2333  0.6610  -2.3883   0.0000   0.3626
   2.800   1.5281   0.04026   0.03402  -0.1847  0.2302  0.6643  -2.4315   0.0000   0.3603
   3.000   1.5483   0.04072   0.03448  -0.1844  0.2273  0.6675  -2.4762   0.0000   0.3582
   3.200   1.5678   0.04120   0.03494  -0.1839  0.2243  0.6703  -2.5215   0.0000   0.3561
   3.400   1.5821   0.04149   0.03525  -0.1824  0.2220  0.6728  -2.5610   0.0000   0.3538
   3.600   1.5974   0.04178   0.03558  -0.1812  0.2197  0.6753  -2.6034   0.0000   0.3516
   3.800   1.6134   0.04213   0.03595  -0.1801  0.2168  0.6778  -2.6474   0.0000   0.3495
   4.000   1.6298   0.04254   0.03636  -0.1791  0.2136  0.6807  -2.6934   0.0000   0.3474
   4.200   1.6470   0.04302   0.03684  -0.1782  0.2103  0.6837  -2.7407   0.0000   0.3454
   4.400   1.6661   0.04355   0.03737  -0.1777  0.2075  0.6866  -2.7922   0.0000   0.3435
   4.600   1.6868   0.04411   0.03794  -0.1774  0.2046  0.6891  -2.8488   0.0000   0.3417
   4.800   1.7004   0.04448   0.03834  -0.1760  0.2017  0.6911  -2.8952   0.0000   0.3397
   5.000   1.7118   0.04487   0.03874  -0.1741  0.1989  0.6932  -2.9384   0.0000   0.3376
   5.200   1.7231   0.04533   0.03921  -0.1724  0.1960  0.6953  -2.9818   0.0000   0.3356
   5.400   1.7362   0.04577   0.03968  -0.1708  0.1937  0.6976  -3.0280   0.0000   0.3336
   5.600   1.7505   0.04625   0.04019  -0.1695  0.1911  0.6999  -3.0808   0.0000   0.3317
   5.800   1.7657   0.04682   0.04077  -0.1684  0.1881  0.7022  -3.1364   0.0000   0.3299
   6.000   1.7817   0.04749   0.04144  -0.1675  0.1849  0.7047  -3.1938   0.0000   0.3282
   6.200   1.7990   0.04827   0.04222  -0.1668  0.1819  0.7072  -3.2537   0.0000   0.3265
   6.400   1.8174   0.04896   0.04293  -0.1663  0.1793  0.7095  -3.3157   0.0000   0.3249
   6.600   1.8259   0.04942   0.04343  -0.1641  0.1765  0.7110  -3.3612   0.0000   0.3229
   6.800   1.8341   0.04999   0.04401  -0.1620  0.1733  0.7123  -3.4134   0.0000   0.3210
   7.000   1.8422   0.05063   0.04467  -0.1599  0.1702  0.7137  -3.4657   0.0000   0.3191
   7.200   1.8524   0.05118   0.04525  -0.1581  0.1679  0.7152  -3.5220   0.0000   0.3173
   7.400   1.8628   0.05176   0.04587  -0.1563  0.1655  0.7170  -3.5795   0.0000   0.3155
   7.600   1.8735   0.05247   0.04661  -0.1547  0.1627  0.7188  -3.6398   0.0000   0.3138
   7.800   1.8835   0.05340   0.04754  -0.1531  0.1594  0.7208  -3.6995   0.0000   0.3121
   8.000   1.8953   0.05432   0.04848  -0.1517  0.1561  0.7228  -3.7673   0.0000   0.3104
   8.200   1.9085   0.05529   0.04947  -0.1506  0.1523  0.7248  -3.8387   0.0000   0.3089
   8.400   1.9221   0.05648   0.05066  -0.1497  0.1485  0.7269  -3.9185   0.0000   0.3074
   8.600   1.9342   0.05765   0.05185  -0.1486  0.1459  0.7287  -3.9960   0.0000   0.3059
   8.800   1.9389   0.05838   0.05263  -0.1462  0.1437  0.7298  -4.0554   0.0000   0.3041
   9.000   1.9436   0.05919   0.05348  -0.1439  0.1410  0.7309  -4.1151   0.0000   0.3024
   9.200   1.9470   0.06021   0.05452  -0.1416  0.1382  0.7318  -4.1721   0.0000   0.3006
   9.400   1.9505   0.06130   0.05564  -0.1393  0.1355  0.7328  -4.2295   0.0000   0.2989
   9.600   1.9558   0.06229   0.05668  -0.1374  0.1329  0.7338  -4.2915   0.0000   0.2973
   9.800   1.9598   0.06351   0.05794  -0.1353  0.1299  0.7348  -4.3506   0.0000   0.2957
  10.000   1.9627   0.06489   0.05933  -0.1333  0.1270  0.7359  -4.4073   0.0000   0.2941
  10.200   1.9670   0.06621   0.06070  -0.1316  0.1245  0.7372  -4.4674   0.0000   0.2926
  10.400   1.9712   0.06763   0.06217  -0.1299  0.1214  0.7386  -4.5279   0.0000   0.2911
  10.600   1.9740   0.06934   0.06389  -0.1283  0.1181  0.7400  -4.5892   0.0000   0.2897
  10.800   1.9780   0.07110   0.06569  -0.1269  0.1151  0.7415  -4.6554   0.0000   0.2884
  11.000   1.9829   0.07299   0.06762  -0.1258  0.1117  0.7431  -4.7254   0.0000   0.2872
  11.200   1.9869   0.07522   0.06987  -0.1249  0.1085  0.7447  -4.7932   0.0000   0.2861
  11.400   1.9956   0.07745   0.07214  -0.1247  0.1056  0.7465  -4.8747   0.0000   0.2852
  11.600   1.9971   0.07944   0.07418  -0.1235  0.1032  0.7475  -4.9356   0.0000   0.2840
  11.800   1.9933   0.08138   0.07618  -0.1218  0.1010  0.7481  -4.9817   0.0000   0.2828
  12.000   1.9890   0.08345   0.07829  -0.1202  0.0990  0.7487  -5.0257   0.0000   0.2816
  12.200   1.9869   0.08529   0.08020  -0.1188  0.0971  0.7493  -5.0759   0.0000   0.2804
  12.400   1.9833   0.08741   0.08239  -0.1176  0.0949  0.7499  -5.1215   0.0000   0.2794
  12.600   1.9783   0.08979   0.08482  -0.1165  0.0927  0.7505  -5.1622   0.0000   0.2784
  12.800   1.9733   0.09225   0.08733  -0.1157  0.0906  0.7511  -5.2022   0.0000   0.2776
  13.000   1.9697   0.09457   0.08972  -0.1150  0.0884  0.7516  -5.2464   0.0000   0.2768
  13.200   1.9641   0.09721   0.09241  -0.1145  0.0861  0.7522  -5.2833   0.0000   0.2761
  13.600   1.9518   0.10277   0.09810  -0.1142  0.0821  0.7534  -5.3508   0.0000   0.2751
  13.800   1.9458   0.10558   0.10097  -0.1142  0.0800  0.7540  -5.3840   0.0000   0.2747
  14.000   1.9380   0.10866   0.10412  -0.1146  0.0780  0.7547  -5.4112   0.0000   0.2745
  14.200   1.9308   0.11172   0.10723  -0.1150  0.0764  0.7554  -5.4397   0.0000   0.2743
  14.400   1.9254   0.11459   0.11018  -0.1156  0.0746  0.7562  -5.4736   0.0000   0.2742
  14.600   1.9186   0.11775   0.11340  -0.1165  0.0728  0.7571  -5.5014   0.0000   0.2742
  14.800   1.9101   0.12125   0.11697  -0.1177  0.0711  0.7580  -5.5212   0.0000   0.2744
  15.000   1.9038   0.12458   0.12037  -0.1191  0.0695  0.7590  -5.5482   0.0000   0.2747
  15.200   1.8984   0.12797   0.12383  -0.1208  0.0678  0.7601  -5.5771   0.0000   0.2750
  15.400   1.8923   0.13166   0.12758  -0.1228  0.0660  0.7613  -5.6016   0.0000   0.2756
  15.600   1.8860   0.13573   0.13171  -0.1255  0.0644  0.7626  -5.6227   0.0000   0.2765
  15.800   1.8894   0.13979   0.13583  -0.1289  0.0624  0.7649  -5.6788   0.0000   0.2774
  16.000   1.8808   0.14318   0.13928  -0.1308  0.0609  0.7653  -5.6914   0.0000   0.2780
  16.200   1.8699   0.14671   0.14288  -0.1327  0.0596  0.7657  -5.6944   0.0000   0.2788
  16.400   1.8597   0.15017   0.14641  -0.1347  0.0585  0.7660  -5.6987   0.0000   0.2795
  16.600   1.8524   0.15312   0.14943  -0.1363  0.0572  0.7663  -5.7160   0.0000   0.2800
  16.800   1.8433   0.15638   0.15275  -0.1383  0.0558  0.7667  -5.7247   0.0000   0.2807
  17.000   1.8333   0.15977   0.15620  -0.1405  0.0546  0.7671  -5.7277   0.0000   0.2816
  17.200   1.8245   0.16296   0.15944  -0.1426  0.0534  0.7675  -5.7355   0.0000   0.2824
  17.400   1.8168   0.16599   0.16253  -0.1446  0.0522  0.7679  -5.7476   0.0000   0.2831
  17.600   1.8099   0.16888   0.16548  -0.1466  0.0510  0.7683  -5.7626   0.0000   0.2838
  17.800   1.8015   0.17209   0.16874  -0.1489  0.0498  0.7688  -5.7683   0.0000   0.2847
  18.200   1.7884   0.17796   0.17471  -0.1533  0.0477  0.7697  -5.7953   0.0000   0.2863
  18.400   1.7842   0.18056   0.17736  -0.1553  0.0466  0.7702  -5.8196   0.0000   0.2869
  18.600   1.7776   0.18365   0.18050  -0.1579  0.0455  0.7706  -5.8291   0.0000   0.2879
  18.800   1.7722   0.18655   0.18343  -0.1603  0.0444  0.7712  -5.8442   0.0000   0.2888
  19.000   1.7679   0.18931   0.18624  -0.1626  0.0434  0.7717  -5.8637   0.0000   0.2896
  19.200   1.7650   0.19184   0.18881  -0.1648  0.0423  0.7723  -5.8908   0.0000   0.2902
  19.400   1.7614   0.19453   0.19154  -0.1672  0.0412  0.7730  -5.9128   0.0000   0.2910
  19.600   1.7559   0.19759   0.19463  -0.1701  0.0402  0.7736  -5.9216   0.0000   0.2921
  19.800   1.7545   0.19993   0.19701  -0.1722  0.0392  0.7745  -5.9547   0.0000   0.2927
  20.000   1.7521   0.20257   0.19970  -0.1748  0.0382  0.7755  -5.9793   0.0000   0.2935
  20.200   1.7500   0.20532   0.20248  -0.1775  0.0372  0.7766  -6.0039   0.0000   0.2944
  20.400   1.7489   0.20818   0.20536  -0.1806  0.0362  0.7779  -6.0317   0.0000   0.2953
  20.600   1.7519   0.21141   0.20863  -0.1844  0.0353  0.7801  -6.0739   0.0000   0.2965
  20.800   1.7583   0.21464   0.21190  -0.1886  0.0341  0.7823  -6.1319   0.0000   0.2976
  21.000   1.7550   0.21692   0.21421  -0.1907  0.0333  0.7826  -6.1524   0.0000   0.2982
  21.200   1.7498   0.21959   0.21691  -0.1934  0.0326  0.7829  -6.1593   0.0000   0.2993
  21.400   1.7477   0.22161   0.21896  -0.1953  0.0319  0.7832  -6.1911   0.0000   0.2997
  21.600   1.7462   0.22353   0.22092  -0.1972  0.0311  0.7835  -6.2259   0.0000   0.3001
  21.800   1.7428   0.22582   0.22325  -0.1995  0.0304  0.7838  -6.2465   0.0000   0.3008
  22.000   1.7398   0.22805   0.22551  -0.2017  0.0297  0.7841  -6.2690   0.0000   0.3015
  22.200   1.7369   0.23027   0.22775  -0.2040  0.0291  0.7844  -6.2911   0.0000   0.3022
  22.400   1.7352   0.23227   0.22979  -0.2061  0.0285  0.7847  -6.3212   0.0000   0.3026
  22.600   1.7338   0.23422   0.23178  -0.2081  0.0278  0.7851  -6.3527   0.0000   0.3031
  22.800   1.7324   0.23616   0.23375  -0.2102  0.0272  0.7854  -6.3843   0.0000   0.3036
  23.000   1.7303   0.23822   0.23584  -0.2124  0.0265  0.7858  -6.4097   0.0000   0.3041
  23.200   1.7265   0.24060   0.23825  -0.2151  0.0259  0.7863  -6.4207   0.0000   0.3051
  23.400   1.7257   0.24237   0.24005  -0.2170  0.0254  0.7867  -6.4556   0.0000   0.3054
  23.600   1.7252   0.24408   0.24179  -0.2189  0.0248  0.7873  -6.4927   0.0000   0.3057
  23.800   1.7237   0.24607   0.24381  -0.2212  0.0242  0.7878  -6.5188   0.0000   0.3062
  24.000   1.7218   0.24816   0.24593  -0.2236  0.0237  0.7884  -6.5411   0.0000   0.3069
  24.200   1.7204   0.25020   0.24799  -0.2260  0.0232  0.7890  -6.5666   0.0000   0.3075
  24.400   1.7199   0.25213   0.24995  -0.2283  0.0227  0.7896  -6.5974   0.0000   0.3080
  24.600   1.7197   0.25407   0.25193  -0.2307  0.0223  0.7903  -6.6288   0.0000   0.3085
  24.800   1.7200   0.25595   0.25384  -0.2331  0.0218  0.7910  -6.6640   0.0000   0.3090
  25.000   1.7205   0.25785   0.25578  -0.2355  0.0213  0.7918  -6.6998   0.0000   0.3094


