xflr5 v6.47

 Calculated polar for: NACA24018_theta30_Ku4.5_Kl0.5_d0.14_delta3.44

 1 1 Reynolds number fixed          Mach number fixed         

 xtrf =   1.000 (top)        1.000 (bottom)
 Mach =   0.000     Re =     1.200 e 6     Ncrit =   5.000

  alpha     CL        CD       CDp       Cm    Top Xtr Bot Xtr   Cpmin    Chinge    XCp    
 ------- -------- --------- --------- -------- ------- ------- -------- --------- ---------
 -15.000  -0.9855   0.03059   0.02561  -0.0868  0.9497  0.0286  -6.5395   0.0000   0.1383
 -14.400  -0.9495   0.02852   0.02346  -0.0852  0.9431  0.0296  -6.1987   0.0000   0.1377
 -14.200  -0.9336   0.02796   0.02288  -0.0851  0.9419  0.0299  -6.0726   0.0000   0.1365
 -14.000  -0.9167   0.02750   0.02239  -0.0852  0.9412  0.0302  -5.9441   0.0000   0.1349
 -13.800  -0.9162   0.02652   0.02138  -0.0825  0.9362  0.0304  -5.8768   0.0000   0.1384
 -13.600  -0.9054   0.02590   0.02074  -0.0816  0.9349  0.0308  -5.7748   0.0000   0.1387
 -13.400  -0.8888   0.02539   0.02022  -0.0815  0.9342  0.0312  -5.6533   0.0000   0.1373
 -13.200  -0.8845   0.02462   0.01943  -0.0792  0.9300  0.0315  -5.5729   0.0000   0.1400
 -13.000  -0.8668   0.02411   0.01891  -0.0791  0.9287  0.0320  -5.4485   0.0000   0.1384
 -12.800  -0.8460   0.02364   0.01843  -0.0795  0.9279  0.0325  -5.3151   0.0000   0.1358
 -12.600  -0.8231   0.02321   0.01799  -0.0802  0.9273  0.0330  -5.1763   0.0000   0.1325
 -12.400  -0.7989   0.02283   0.01759  -0.0811  0.9268  0.0334  -5.0346   0.0000   0.1285
 -12.200  -0.7883   0.02227   0.01702  -0.0795  0.9230  0.0338  -4.9376   0.0000   0.1294
 -12.000  -0.7669   0.02183   0.01657  -0.0799  0.9217  0.0343  -4.8123   0.0000   0.1262
 -11.800  -0.7432   0.02142   0.01617  -0.0807  0.9208  0.0350  -4.6810   0.0000   0.1219
 -11.600  -0.7184   0.02105   0.01580  -0.0816  0.9202  0.0358  -4.5473   0.0000   0.1169
 -11.400  -0.6927   0.02071   0.01546  -0.0826  0.9197  0.0366  -4.4126   0.0000   0.1112
 -11.200  -0.6660   0.02038   0.01512  -0.0838  0.9192  0.0372  -4.2769   0.0000   0.1046
 -11.000  -0.6521   0.01999   0.01472  -0.0826  0.9152  0.0377  -4.1788   0.0000   0.1039
 -10.800  -0.6279   0.01963   0.01437  -0.0833  0.9136  0.0384  -4.0528   0.0000   0.0979
 -10.200  -0.5618   0.01870   0.01346  -0.0841  0.9054  0.0410  -3.6994   0.0000   0.0808
 -10.000  -0.5547   0.01862   0.01339  -0.0817  0.8916  0.0416  -3.6239   0.0000   0.0835
  -9.800  -0.5340   0.01846   0.01324  -0.0816  0.8821  0.0425  -3.5130   0.0000   0.0778
  -9.600  -0.5069   0.01819   0.01297  -0.0827  0.8768  0.0436  -3.3865   0.0000   0.0673
  -9.400  -0.4762   0.01784   0.01263  -0.0843  0.8728  0.0448  -3.2523   0.0000   0.0529
  -9.200  -0.4446   0.01747   0.01226  -0.0861  0.8667  0.0460  -3.1197   0.0000   0.0358
  -9.000  -0.4089   0.01700   0.01178  -0.0887  0.8612  0.0473  -2.9829   0.0000   0.0118
  -8.800  -0.3682   0.01640   0.01118  -0.0921  0.8538  0.0493  -2.8367   0.0000  -0.0228
  -8.600  -0.3225   0.01568   0.01042  -0.0964  0.8440  0.0512  -2.6820   0.0000  -0.0736
  -8.400  -0.2751   0.01493   0.00963  -0.1012  0.8302  0.0534  -2.5306   0.0000  -0.1452
  -8.200  -0.2332   0.01435   0.00897  -0.1050  0.8110  0.0557  -2.3966   0.0000  -0.2309
  -8.000  -0.2032   0.01407   0.00857  -0.1065  0.7830  0.0576  -2.2895   0.0000  -0.3078
  -7.800  -0.1799   0.01397   0.00837  -0.1068  0.7536  0.0598  -2.1971   0.0000  -0.3805
  -7.600  -0.1581   0.01394   0.00824  -0.1068  0.7271  0.0618  -2.1092   0.0000  -0.4654
  -7.400  -0.1357   0.01393   0.00814  -0.1070  0.7037  0.0637  -2.0212   0.0000  -0.5825
  -7.200  -0.1124   0.01390   0.00805  -0.1073  0.6825  0.0663  -1.9327   0.0000  -0.7560
  -6.800  -0.0649   0.01388   0.00789  -0.1081  0.6399  0.0717  -1.7653   0.0000  -1.4967
  -6.600  -0.0403   0.01388   0.00782  -0.1086  0.6201  0.0748  -1.6818   0.0000  -2.5692
  -6.400  -0.0152   0.01387   0.00775  -0.1092  0.6015  0.0778  -1.5987   0.0000  -7.2276
  -6.200   0.0103   0.01386   0.00770  -0.1099  0.5827  0.0819  -1.5160   0.0000  11.3225
  -6.000   0.0362   0.01386   0.00764  -0.1107  0.5641  0.0862  -1.4378   0.0000   3.4256
  -5.800   0.0624   0.01386   0.00759  -0.1116  0.5471  0.0914  -1.3602   0.0000   2.1033
  -5.600   0.0891   0.01385   0.00755  -0.1125  0.5322  0.0970  -1.2838   0.0000   1.5557
  -5.400   0.1153   0.01387   0.00753  -0.1133  0.5173  0.1024  -1.2122   0.0000   1.2640
  -5.200   0.1421   0.01388   0.00751  -0.1143  0.5023  0.1095  -1.1406   0.0000   1.0777
  -5.000   0.1692   0.01389   0.00750  -0.1153  0.4868  0.1179  -1.0699   0.0000   0.9498
  -4.800   0.1964   0.01392   0.00750  -0.1163  0.4700  0.1277  -1.0000   0.0000   0.8570
  -4.600   0.2240   0.01395   0.00751  -0.1174  0.4537  0.1398  -0.9307   0.0000   0.7862
  -4.400   0.2528   0.01398   0.00753  -0.1188  0.4391  0.1567  -0.8640   0.0000   0.7295
  -4.200   0.2827   0.01401   0.00758  -0.1204  0.4258  0.1789  -0.8138   0.0000   0.6837
  -4.000   0.3156   0.01403   0.00766  -0.1227  0.4136  0.2126  -0.8441   0.0000   0.6449
  -3.800   0.3552   0.01404   0.00781  -0.1264  0.4015  0.2732  -0.8789   0.0000   0.6106
  -3.600   0.4019   0.01408   0.00808  -0.1315  0.3897  0.3592  -0.9188   0.0000   0.5808
  -3.400   0.4365   0.01418   0.00823  -0.1341  0.3792  0.3951  -0.9534   0.0000   0.5598
  -3.200   0.4682   0.01428   0.00835  -0.1359  0.3691  0.4195  -0.9867   0.0000   0.5423
  -2.800   0.5335   0.01454   0.00865  -0.1401  0.3500  0.4705  -1.0555   0.0000   0.5133
  -2.600   0.5644   0.01467   0.00879  -0.1418  0.3425  0.4895  -1.0890   0.0000   0.5014
  -2.400   0.5944   0.01481   0.00893  -0.1433  0.3347  0.5053  -1.1221   0.0000   0.4907
  -2.200   0.6253   0.01496   0.00908  -0.1449  0.3285  0.5229  -1.1560   0.0000   0.4810
  -2.000   0.6557   0.01511   0.00924  -0.1465  0.3233  0.5383  -1.1898   0.0000   0.4722
  -1.800   0.6869   0.01528   0.00942  -0.1482  0.3177  0.5556  -1.2248   0.0000   0.4642
  -1.600   0.7159   0.01544   0.00957  -0.1495  0.3128  0.5684  -1.2594   0.0000   0.4569
  -1.400   0.7426   0.01558   0.00971  -0.1503  0.3085  0.5757  -1.2926   0.0000   0.4501
  -1.200   0.7671   0.01572   0.00982  -0.1506  0.3035  0.5813  -1.3257   0.0000   0.4437
  -0.800   0.8191   0.01603   0.01011  -0.1519  0.2948  0.5932  -1.3947   0.0000   0.4322
  -0.600   0.8436   0.01618   0.01024  -0.1523  0.2908  0.5989  -1.4282   0.0000   0.4269
  -0.400   0.8694   0.01635   0.01040  -0.1529  0.2862  0.6044  -1.4631   0.0000   0.4220
  -0.200   0.8944   0.01652   0.01055  -0.1534  0.2819  0.6101  -1.4977   0.0000   0.4173
   0.000   0.9186   0.01667   0.01070  -0.1536  0.2794  0.6153  -1.5331   0.0000   0.4128
   0.200   0.9434   0.01683   0.01086  -0.1541  0.2763  0.6201  -1.5693   0.0000   0.4086
   0.400   0.9684   0.01702   0.01104  -0.1545  0.2725  0.6257  -1.6059   0.0000   0.4045
   0.600   0.9924   0.01721   0.01120  -0.1548  0.2684  0.6315  -1.6417   0.0000   0.4007
   0.800   1.0165   0.01739   0.01138  -0.1551  0.2653  0.6367  -1.6778   0.0000   0.3969
   1.000   1.0416   0.01757   0.01158  -0.1555  0.2627  0.6426  -1.7156   0.0000   0.3934
   1.200   1.0656   0.01776   0.01176  -0.1558  0.2595  0.6484  -1.7537   0.0000   0.3900
   1.400   1.0887   0.01796   0.01195  -0.1559  0.2559  0.6533  -1.7926   0.0000   0.3868
   1.600   1.1125   0.01818   0.01216  -0.1561  0.2520  0.6583  -1.8326   0.0000   0.3836
   1.800   1.1359   0.01837   0.01236  -0.1563  0.2494  0.6632  -1.8725   0.0000   0.3806
   2.000   1.1587   0.01857   0.01255  -0.1563  0.2465  0.6678  -1.9120   0.0000   0.3776
   2.200   1.1814   0.01878   0.01276  -0.1563  0.2431  0.6723  -1.9517   0.0000   0.3748
   2.400   1.2043   0.01901   0.01299  -0.1564  0.2397  0.6774  -1.9917   0.0000   0.3720
   2.600   1.2268   0.01925   0.01322  -0.1563  0.2366  0.6827  -2.0329   0.0000   0.3694
   2.800   1.2492   0.01946   0.01343  -0.1563  0.2346  0.6874  -2.0747   0.0000   0.3668
   3.000   1.2713   0.01968   0.01367  -0.1562  0.2319  0.6918  -2.1164   0.0000   0.3642
   3.200   1.2931   0.01991   0.01391  -0.1560  0.2287  0.6964  -2.1579   0.0000   0.3618
   3.400   1.3145   0.02017   0.01416  -0.1558  0.2254  0.7009  -2.2003   0.0000   0.3593
   3.600   1.3357   0.02044   0.01441  -0.1556  0.2224  0.7049  -2.2435   0.0000   0.3570
   3.800   1.3567   0.02066   0.01465  -0.1553  0.2203  0.7086  -2.2867   0.0000   0.3547
   4.000   1.3774   0.02090   0.01491  -0.1549  0.2175  0.7124  -2.3310   0.0000   0.3524
   4.200   1.3979   0.02116   0.01517  -0.1545  0.2144  0.7163  -2.3770   0.0000   0.3502
   4.400   1.4183   0.02145   0.01545  -0.1542  0.2112  0.7201  -2.4239   0.0000   0.3480
   4.600   1.4386   0.02174   0.01573  -0.1538  0.2082  0.7236  -2.4711   0.0000   0.3459
   4.800   1.4579   0.02199   0.01601  -0.1532  0.2060  0.7275  -2.5172   0.0000   0.3438
   5.000   1.4773   0.02226   0.01629  -0.1526  0.2034  0.7314  -2.5638   0.0000   0.3417
   5.200   1.4966   0.02256   0.01660  -0.1520  0.2004  0.7350  -2.6105   0.0000   0.3397
   5.400   1.5159   0.02291   0.01693  -0.1515  0.1973  0.7384  -2.6573   0.0000   0.3378
   5.600   1.5349   0.02324   0.01726  -0.1509  0.1949  0.7413  -2.7063   0.0000   0.3358
   5.800   1.5520   0.02352   0.01758  -0.1499  0.1928  0.7444  -2.7567   0.0000   0.3338
   6.000   1.5692   0.02384   0.01791  -0.1490  0.1900  0.7476  -2.8076   0.0000   0.3318
   6.200   1.5864   0.02421   0.01828  -0.1481  0.1864  0.7508  -2.8588   0.0000   0.3299
   6.400   1.6036   0.02463   0.01869  -0.1472  0.1826  0.7538  -2.9102   0.0000   0.3280
   6.600   1.6226   0.02499   0.01906  -0.1466  0.1803  0.7565  -2.9645   0.0000   0.3263
   6.800   1.6402   0.02535   0.01944  -0.1458  0.1778  0.7589  -3.0171   0.0000   0.3245
   7.000   1.6551   0.02570   0.01980  -0.1445  0.1753  0.7615  -3.0659   0.0000   0.3226
   7.200   1.6699   0.02608   0.02020  -0.1432  0.1727  0.7641  -3.1178   0.0000   0.3207
   7.400   1.6848   0.02652   0.02065  -0.1419  0.1698  0.7667  -3.1752   0.0000   0.3188
   7.600   1.7009   0.02694   0.02108  -0.1409  0.1672  0.7694  -3.2353   0.0000   0.3171
   7.800   1.7169   0.02743   0.02158  -0.1399  0.1636  0.7719  -3.2957   0.0000   0.3154
   8.000   1.7328   0.02800   0.02213  -0.1389  0.1598  0.7742  -3.3562   0.0000   0.3137
   8.200   1.7474   0.02849   0.02264  -0.1377  0.1571  0.7762  -3.4173   0.0000   0.3120
   8.400   1.7598   0.02890   0.02308  -0.1361  0.1548  0.7783  -3.4788   0.0000   0.3102
   8.600   1.7718   0.02939   0.02358  -0.1344  0.1517  0.7804  -3.5400   0.0000   0.3084
   8.800   1.7827   0.03000   0.02420  -0.1327  0.1483  0.7826  -3.5994   0.0000   0.3065
   9.000   1.7949   0.03060   0.02481  -0.1311  0.1454  0.7847  -3.6616   0.0000   0.3048
   9.200   1.8086   0.03118   0.02541  -0.1299  0.1423  0.7869  -3.7307   0.0000   0.3032
   9.400   1.8220   0.03187   0.02610  -0.1286  0.1387  0.7889  -3.8035   0.0000   0.3016
   9.600   1.8347   0.03267   0.02689  -0.1274  0.1354  0.7908  -3.8751   0.0000   0.3000
   9.800   1.8488   0.03336   0.02761  -0.1263  0.1331  0.7924  -3.9505   0.0000   0.2985
  10.000   1.8568   0.03400   0.02828  -0.1242  0.1304  0.7940  -4.0146   0.0000   0.2967
  10.200   1.8633   0.03476   0.02906  -0.1220  0.1270  0.7955  -4.0783   0.0000   0.2949
  10.400   1.8697   0.03559   0.02991  -0.1198  0.1240  0.7971  -4.1417   0.0000   0.2931
  10.600   1.8779   0.03637   0.03071  -0.1179  0.1210  0.7988  -4.2099   0.0000   0.2915
  10.800   1.8851   0.03732   0.03168  -0.1160  0.1178  0.8004  -4.2761   0.0000   0.2898
  11.000   1.8924   0.03838   0.03275  -0.1143  0.1148  0.8021  -4.3448   0.0000   0.2882
  11.200   1.9021   0.03934   0.03375  -0.1129  0.1126  0.8038  -4.4203   0.0000   0.2868
  11.400   1.9109   0.04046   0.03488  -0.1115  0.1095  0.8054  -4.4938   0.0000   0.2853
  11.600   1.9177   0.04182   0.03625  -0.1100  0.1061  0.8069  -4.5625   0.0000   0.2839
  11.800   1.9266   0.04311   0.03756  -0.1088  0.1033  0.8082  -4.6377   0.0000   0.2826
  12.000   1.9316   0.04440   0.03888  -0.1072  0.1005  0.8094  -4.7054   0.0000   0.2812
  12.200   1.9318   0.04577   0.04028  -0.1049  0.0979  0.8105  -4.7615   0.0000   0.2795
  12.400   1.9327   0.04714   0.04170  -0.1028  0.0957  0.8117  -4.8197   0.0000   0.2780
  12.600   1.9344   0.04854   0.04314  -0.1010  0.0935  0.8128  -4.8822   0.0000   0.2765
  12.800   1.9350   0.05014   0.04477  -0.0992  0.0910  0.8138  -4.9417   0.0000   0.2751
  13.000   1.9344   0.05201   0.04668  -0.0976  0.0885  0.8148  -4.9975   0.0000   0.2738
  13.200   1.9363   0.05373   0.04844  -0.0962  0.0865  0.8159  -5.0605   0.0000   0.2726
  13.400   1.9371   0.05563   0.05039  -0.0950  0.0841  0.8170  -5.1202   0.0000   0.2715
  13.600   1.9358   0.05783   0.05262  -0.0938  0.0817  0.8181  -5.1734   0.0000   0.2704
  13.800   1.9346   0.06012   0.05497  -0.0929  0.0797  0.8193  -5.2268   0.0000   0.2694
  14.000   1.9347   0.06240   0.05730  -0.0922  0.0775  0.8204  -5.2840   0.0000   0.2685
  14.200   1.9325   0.06503   0.05997  -0.0916  0.0751  0.8214  -5.3337   0.0000   0.2678
  14.400   1.9282   0.06801   0.06299  -0.0912  0.0729  0.8223  -5.3762   0.0000   0.2671
  14.600   1.9269   0.07075   0.06579  -0.0911  0.0711  0.8231  -5.4279   0.0000   0.2665
  14.800   1.9236   0.07381   0.06891  -0.0911  0.0691  0.8239  -5.4725   0.0000   0.2660
  15.000   1.9179   0.07725   0.07241  -0.0914  0.0672  0.8246  -5.5095   0.0000   0.2657
  15.200   1.9091   0.08053   0.07575  -0.0912  0.0658  0.8252  -5.5361   0.0000   0.2653
  15.400   1.9010   0.08356   0.07886  -0.0910  0.0646  0.8258  -5.5648   0.0000   0.2648
  15.600   1.8914   0.08686   0.08224  -0.0910  0.0632  0.8263  -5.5872   0.0000   0.2645
  15.800   1.8802   0.09044   0.08590  -0.0913  0.0619  0.8268  -5.6030   0.0000   0.2643
  16.000   1.8678   0.09427   0.08980  -0.0918  0.0606  0.8273  -5.6129   0.0000   0.2643
  16.200   1.8563   0.09804   0.09365  -0.0925  0.0595  0.8277  -5.6244   0.0000   0.2644
  16.400   1.8464   0.10167   0.09735  -0.0933  0.0584  0.8281  -5.6406   0.0000   0.2645
  16.600   1.8353   0.10551   0.10127  -0.0944  0.0571  0.8286  -5.6510   0.0000   0.2648
  16.800   1.8226   0.10961   0.10545  -0.0957  0.0559  0.8290  -5.6536   0.0000   0.2652
  17.000   1.8087   0.11391   0.10982  -0.0973  0.0547  0.8295  -5.6498   0.0000   0.2659
  17.200   1.7965   0.11799   0.11398  -0.0990  0.0537  0.8300  -5.6505   0.0000   0.2665
  17.400   1.7860   0.12183   0.11789  -0.1006  0.0527  0.8306  -5.6568   0.0000   0.2671
  17.600   1.7750   0.12577   0.12191  -0.1024  0.0516  0.8311  -5.6596   0.0000   0.2679
  17.800   1.7633   0.12989   0.12609  -0.1045  0.0506  0.8317  -5.6575   0.0000   0.2688
  18.000   1.7513   0.13411   0.13039  -0.1068  0.0496  0.8322  -5.6521   0.0000   0.2698
  18.200   1.7400   0.13827   0.13461  -0.1093  0.0487  0.8328  -5.6491   0.0000   0.2709
  18.400   1.7331   0.14181   0.13821  -0.1114  0.0478  0.8334  -5.6641   0.0000   0.2718
  18.600   1.7259   0.14545   0.14191  -0.1137  0.0468  0.8340  -5.6795   0.0000   0.2727
  18.800   1.7174   0.14935   0.14588  -0.1163  0.0458  0.8346  -5.6869   0.0000   0.2739
  19.000   1.7100   0.15313   0.14971  -0.1189  0.0448  0.8352  -5.6979   0.0000   0.2750
  19.200   1.7016   0.15712   0.15375  -0.1219  0.0438  0.8359  -5.7024   0.0000   0.2764
  19.400   1.6976   0.16053   0.15721  -0.1245  0.0429  0.8367  -5.7268   0.0000   0.2774
  19.600   1.6942   0.16393   0.16065  -0.1272  0.0419  0.8375  -5.7534   0.0000   0.2785
  19.800   1.6895   0.16768   0.16445  -0.1303  0.0408  0.8383  -5.7705   0.0000   0.2798
  20.000   1.6857   0.17141   0.16822  -0.1336  0.0397  0.8391  -5.7903   0.0000   0.2812
  20.200   1.6833   0.17502   0.17187  -0.1369  0.0388  0.8399  -5.8158   0.0000   0.2826
  20.400   1.6792   0.17784   0.17474  -0.1389  0.0380  0.8404  -5.8389   0.0000   0.2833
  20.600   1.6751   0.18048   0.17742  -0.1408  0.0371  0.8408  -5.8624   0.0000   0.2840
  20.800   1.6680   0.18373   0.18072  -0.1434  0.0363  0.8412  -5.8668   0.0000   0.2852
  21.000   1.6633   0.18657   0.18358  -0.1456  0.0355  0.8416  -5.8842   0.0000   0.2860
  21.200   1.6578   0.18958   0.18664  -0.1480  0.0348  0.8419  -5.8955   0.0000   0.2871
  21.400   1.6552   0.19209   0.18919  -0.1500  0.0340  0.8424  -5.9228   0.0000   0.2878
  21.600   1.6526   0.19457   0.19171  -0.1520  0.0332  0.8428  -5.9500   0.0000   0.2884
  21.800   1.6469   0.19762   0.19479  -0.1546  0.0325  0.8432  -5.9566   0.0000   0.2896
  22.000   1.6428   0.20032   0.19752  -0.1569  0.0317  0.8437  -5.9733   0.0000   0.2905
  22.200   1.6401   0.20278   0.20002  -0.1590  0.0311  0.8442  -5.9972   0.0000   0.2912
  22.400   1.6367   0.20541   0.20270  -0.1613  0.0305  0.8447  -6.0155   0.0000   0.2921
  22.600   1.6351   0.20774   0.20506  -0.1634  0.0298  0.8452  -6.0448   0.0000   0.2928
  22.800   1.6335   0.21014   0.20749  -0.1656  0.0291  0.8458  -6.0725   0.0000   0.2935
  23.000   1.6289   0.21319   0.21057  -0.1685  0.0284  0.8463  -6.0780   0.0000   0.2948
  23.200   1.6269   0.21580   0.21320  -0.1710  0.0277  0.8468  -6.0995   0.0000   0.2957
  23.400   1.6278   0.21790   0.21533  -0.1731  0.0271  0.8474  -6.1406   0.0000   0.2962
  23.600   1.6261   0.22056   0.21804  -0.1758  0.0265  0.8479  -6.1613   0.0000   0.2972
  23.800   1.6253   0.22309   0.22059  -0.1785  0.0258  0.8485  -6.1874   0.0000   0.2981
  24.000   1.6250   0.22558   0.22310  -0.1811  0.0252  0.8491  -6.2158   0.0000   0.2990
  24.200   1.6224   0.22857   0.22613  -0.1843  0.0246  0.8499  -6.2272   0.0000   0.3004
  24.400   1.6237   0.23091   0.22850  -0.1870  0.0241  0.8507  -6.2667   0.0000   0.3011
  24.600   1.6261   0.23319   0.23081  -0.1896  0.0235  0.8515  -6.3122   0.0000   0.3018
  24.800   1.6284   0.23566   0.23330  -0.1926  0.0230  0.8524  -6.3543   0.0000   0.3026
  25.000   1.6282   0.23879   0.23647  -0.1963  0.0224  0.8532  -6.3725   0.0000   0.3041


