xflr5 v6.47

 Calculated polar for: NACA24018_theta30_Ku4.5_Kl0.5_d0.24_delta7.31

 1 1 Reynolds number fixed          Mach number fixed         

 xtrf =   1.000 (top)        1.000 (bottom)
 Mach =   0.000     Re =     3.200 e 6     Ncrit =   5.000

  alpha     CL        CD       CDp       Cm    Top Xtr Bot Xtr   Cpmin    Chinge    XCp    
 ------- -------- --------- --------- -------- ------- ------- -------- --------- ---------
 -15.000  -0.5263   0.02809   0.02422  -0.1467  0.8528  0.0314  -4.9048   0.0000  -0.0625
 -14.800  -0.4980   0.02801   0.02415  -0.1482  0.8530  0.0319  -4.7534   0.0000  -0.0824
 -14.600  -0.4697   0.02796   0.02411  -0.1497  0.8531  0.0323  -4.6055   0.0000  -0.1045
 -14.400  -0.4415   0.02794   0.02409  -0.1512  0.8532  0.0327  -4.4594   0.0000  -0.1294
 -14.200  -0.4127   0.02793   0.02409  -0.1528  0.8533  0.0335  -4.3135   0.0000  -0.1588
 -14.000  -0.3837   0.02795   0.02413  -0.1545  0.8534  0.0344  -4.1685   0.0000  -0.1928
 -13.800  -0.3542   0.02796   0.02415  -0.1562  0.8534  0.0352  -4.0238   0.0000  -0.2331
 -13.600  -0.3234   0.02791   0.02411  -0.1580  0.8535  0.0359  -3.8774   0.0000  -0.2833
 -13.400  -0.2897   0.02772   0.02393  -0.1603  0.8537  0.0364  -3.7247   0.0000  -0.3516
 -13.200  -0.2495   0.02727   0.02349  -0.1636  0.8539  0.0374  -3.5566   0.0000  -0.4603
 -11.400   0.0105   0.02757   0.02392  -0.1764  0.8413  0.0466  -2.4680   0.0000  18.0056
 -11.200   0.0334   0.02798   0.02435  -0.1768  0.8393  0.0481  -2.3719   0.0000   5.8520
 -11.000   0.0599   0.02819   0.02457  -0.1778  0.8375  0.0493  -2.2691   0.0000   3.3784
 -10.800   0.0892   0.02833   0.02474  -0.1792  0.8356  0.0509  -2.1622   0.0000   2.3635
 -10.600   0.1053   0.02909   0.02552  -0.1785  0.8327  0.0523  -2.0839   0.0000   2.0310
 -10.400   0.1107   0.03032   0.02676  -0.1761  0.8021  0.0534  -2.0282   0.0000   1.9188
 -10.200   0.1742   0.02837   0.02423  -0.1828  0.6949  0.0564  -1.8620   0.0000   1.3475
 -10.000   0.1809   0.02942   0.02511  -0.1805  0.6457  0.0577  -1.8082   0.0000   1.2921
  -9.800   0.2016   0.02989   0.02548  -0.1805  0.6192  0.0592  -1.7291   0.0000   1.1834
  -9.600   0.2258   0.03024   0.02575  -0.1810  0.5967  0.0610  -1.6452   0.0000   1.0845
  -9.400   0.2520   0.03053   0.02598  -0.1819  0.5761  0.0634  -1.5624   0.0000   1.0002
  -9.200   0.2776   0.03080   0.02618  -0.1826  0.5558  0.0653  -1.4819   0.0000   0.9327
  -9.000   0.3038   0.03109   0.02640  -0.1835  0.5338  0.0680  -1.4016   0.0000   0.8757
  -8.800   0.3295   0.03139   0.02662  -0.1843  0.5120  0.0711  -1.3231   0.0000   0.8283
  -8.600   0.3560   0.03168   0.02685  -0.1852  0.4909  0.0748  -1.2448   0.0000   0.7870
  -8.400   0.3819   0.03195   0.02706  -0.1860  0.4719  0.0777  -1.1686   0.0000   0.7519
  -8.200   0.4084   0.03224   0.02729  -0.1868  0.4542  0.0812  -1.0928   0.0000   0.7207
  -8.000   0.4349   0.03251   0.02752  -0.1877  0.4391  0.0852  -1.0208   0.0000   0.6934
  -7.800   0.4623   0.03282   0.02778  -0.1887  0.4252  0.0904  -0.9529   0.0000   0.6687
  -7.600   0.4885   0.03309   0.02802  -0.1895  0.4128  0.0943  -0.8880   0.0000   0.6472
  -7.400   0.5161   0.03339   0.02829  -0.1905  0.3993  0.0998  -0.8785   0.0000   0.6274
  -7.200   0.5434   0.03370   0.02855  -0.1915  0.3855  0.1059  -0.8837   0.0000   0.6098
  -7.000   0.5707   0.03400   0.02884  -0.1925  0.3752  0.1126  -0.8972   0.0000   0.5937
  -6.800   0.5995   0.03434   0.02916  -0.1937  0.3660  0.1214  -0.9269   0.0000   0.5788
  -6.600   0.6286   0.03470   0.02951  -0.1950  0.3576  0.1315  -0.9572   0.0000   0.5651
  -6.400   0.6578   0.03506   0.02987  -0.1963  0.3484  0.1428  -0.9877   0.0000   0.5527
  -6.200   0.6886   0.03548   0.03029  -0.1979  0.3399  0.1591  -1.0195   0.0000   0.5410
  -6.000   0.7186   0.03588   0.03069  -0.1994  0.3307  0.1751  -1.0510   0.0000   0.5304
  -5.800   0.7493   0.03632   0.03114  -0.2009  0.3240  0.1930  -1.0832   0.0000   0.5206
  -5.600   0.7845   0.03688   0.03173  -0.2033  0.3148  0.2222  -1.1190   0.0000   0.5110
  -5.400   0.8305   0.03778   0.03273  -0.2077  0.3098  0.2773  -1.1656   0.0000   0.5014
  -5.200   0.8735   0.03862   0.03364  -0.2114  0.3039  0.3237  -1.2114   0.0000   0.4929
  -5.000   0.9114   0.03932   0.03438  -0.2142  0.2973  0.3588  -1.2535   0.0000   0.4855
  -4.800   0.9447   0.03990   0.03499  -0.2162  0.2943  0.3835  -1.2922   0.0000   0.4789
  -4.600   0.9749   0.04039   0.03549  -0.2176  0.2900  0.4010  -1.3288   0.0000   0.4728
  -4.400   1.0008   0.04074   0.03582  -0.2182  0.2845  0.4106  -1.3621   0.0000   0.4673
  -4.200   1.0275   0.04112   0.03619  -0.2189  0.2795  0.4222  -1.3961   0.0000   0.4620
  -4.000   1.0569   0.04161   0.03671  -0.2202  0.2771  0.4391  -1.4328   0.0000   0.4568
  -3.800   1.0875   0.04214   0.03725  -0.2216  0.2734  0.4590  -1.4723   0.0000   0.4519
  -3.600   1.1174   0.04264   0.03775  -0.2229  0.2684  0.4763  -1.5115   0.0000   0.4473
  -3.400   1.1421   0.04298   0.03807  -0.2233  0.2633  0.4847  -1.5463   0.0000   0.4430
  -3.200   1.1664   0.04334   0.03843  -0.2235  0.2609  0.4900  -1.5809   0.0000   0.4388
  -3.000   1.1891   0.04364   0.03871  -0.2236  0.2576  0.4942  -1.6144   0.0000   0.4348
  -2.800   1.2110   0.04391   0.03896  -0.2234  0.2539  0.4978  -1.6477   0.0000   0.4310
  -2.600   1.2324   0.04416   0.03919  -0.2232  0.2501  0.5006  -1.6832   0.0000   0.4273
  -2.400   1.2564   0.04453   0.03954  -0.2234  0.2471  0.5054  -1.7214   0.0000   0.4237
  -2.200   1.2797   0.04488   0.03990  -0.2235  0.2452  0.5101  -1.7593   0.0000   0.4203
  -2.000   1.3016   0.04518   0.04019  -0.2234  0.2424  0.5143  -1.7959   0.0000   0.4169
  -1.800   1.3225   0.04544   0.04043  -0.2230  0.2389  0.5174  -1.8317   0.0000   0.4136
  -1.600   1.3433   0.04570   0.04066  -0.2227  0.2349  0.5201  -1.8676   0.0000   0.4105
  -1.400   1.3661   0.04605   0.04100  -0.2227  0.2318  0.5245  -1.9059   0.0000   0.4074
  -1.200   1.3882   0.04639   0.04134  -0.2226  0.2301  0.5285  -1.9452   0.0000   0.4044
  -1.000   1.4093   0.04669   0.04163  -0.2223  0.2274  0.5320  -1.9836   0.0000   0.4015
  -0.800   1.4297   0.04696   0.04188  -0.2219  0.2239  0.5351  -2.0215   0.0000   0.3987
  -0.600   1.4495   0.04721   0.04211  -0.2214  0.2197  0.5375  -2.0588   0.0000   0.3959
  -0.400   1.4709   0.04753   0.04242  -0.2211  0.2165  0.5413  -2.0998   0.0000   0.3932
  -0.200   1.4932   0.04790   0.04279  -0.2211  0.2139  0.5462  -2.1421   0.0000   0.3906
   0.000   1.5141   0.04822   0.04310  -0.2207  0.2105  0.5503  -2.1831   0.0000   0.3881
   0.200   1.5340   0.04852   0.04337  -0.2202  0.2070  0.5536  -2.2230   0.0000   0.3856
   0.400   1.5534   0.04879   0.04363  -0.2197  0.2036  0.5562  -2.2654   0.0000   0.3831
   0.600   1.5737   0.04911   0.04395  -0.2192  0.2021  0.5594  -2.3098   0.0000   0.3807
   0.800   1.5958   0.04950   0.04435  -0.2191  0.2004  0.5641  -2.3567   0.0000   0.3784
   1.000   1.6167   0.04986   0.04470  -0.2188  0.1983  0.5680  -2.4023   0.0000   0.3761
   1.200   1.6364   0.05018   0.04501  -0.2182  0.1958  0.5713  -2.4467   0.0000   0.3738
   1.400   1.6553   0.05048   0.04530  -0.2176  0.1925  0.5739  -2.4903   0.0000   0.3716
   1.600   1.6738   0.05077   0.04557  -0.2169  0.1889  0.5760  -2.5336   0.0000   0.3694
   1.800   1.6936   0.05111   0.04591  -0.2163  0.1866  0.5790  -2.5789   0.0000   0.3672
   2.000   1.7141   0.05152   0.04631  -0.2159  0.1830  0.5833  -2.6253   0.0000   0.3652
   2.200   1.7333   0.05190   0.04666  -0.2153  0.1789  0.5872  -2.6702   0.0000   0.3631
   2.400   1.7520   0.05224   0.04700  -0.2146  0.1756  0.5906  -2.7146   0.0000   0.3610
   2.600   1.7702   0.05255   0.04731  -0.2139  0.1735  0.5933  -2.7621   0.0000   0.3590
   2.800   1.7877   0.05286   0.04761  -0.2130  0.1703  0.5953  -2.8110   0.0000   0.3570
   3.000   1.8059   0.05326   0.04798  -0.2122  0.1662  0.5986  -2.8613   0.0000   0.3551
   3.200   1.8252   0.05369   0.04841  -0.2116  0.1630  0.6026  -2.9158   0.0000   0.3532
   3.400   1.8437   0.05407   0.04880  -0.2109  0.1609  0.6060  -2.9712   0.0000   0.3513
   3.600   1.8613   0.05445   0.04917  -0.2101  0.1580  0.6089  -3.0253   0.0000   0.3494
   3.800   1.8779   0.05485   0.04954  -0.2091  0.1545  0.6115  -3.0783   0.0000   0.3475
   4.000   1.8943   0.05524   0.04992  -0.2080  0.1509  0.6138  -3.1312   0.0000   0.3457
   4.200   1.9110   0.05562   0.05030  -0.2070  0.1484  0.6159  -3.1882   0.0000   0.3439
   4.400   1.9284   0.05613   0.05080  -0.2062  0.1444  0.6195  -3.2476   0.0000   0.3421
   4.600   1.9444   0.05669   0.05133  -0.2051  0.1400  0.6225  -3.3051   0.0000   0.3403
   4.800   1.9604   0.05721   0.05186  -0.2040  0.1379  0.6253  -3.3630   0.0000   0.3385
   5.000   1.9753   0.05777   0.05241  -0.2028  0.1344  0.6281  -3.4206   0.0000   0.3367
   5.200   1.9888   0.05837   0.05299  -0.2013  0.1293  0.6306  -3.4778   0.0000   0.3349
   5.400   2.0034   0.05887   0.05348  -0.2000  0.1267  0.6327  -3.5416   0.0000   0.3332
   5.600   2.0171   0.05940   0.05400  -0.1986  0.1231  0.6342  -3.6089   0.0000   0.3314
   5.800   2.0308   0.06001   0.05460  -0.1972  0.1191  0.6365  -3.6793   0.0000   0.3297
   6.000   2.0462   0.06057   0.05516  -0.1961  0.1168  0.6392  -3.7543   0.0000   0.3281
   6.200   2.0603   0.06118   0.05577  -0.1948  0.1134  0.6419  -3.8273   0.0000   0.3264
   6.400   2.0729   0.06187   0.05644  -0.1933  0.1092  0.6446  -3.8979   0.0000   0.3247
   6.600   2.0866   0.06247   0.05704  -0.1920  0.1065  0.6472  -3.9708   0.0000   0.3230
   6.800   2.0972   0.06327   0.05782  -0.1902  0.1020  0.6493  -4.0391   0.0000   0.3213
   7.000   2.1074   0.06410   0.05865  -0.1884  0.0984  0.6510  -4.1130   0.0000   0.3196
   7.200   2.1178   0.06491   0.05945  -0.1866  0.0952  0.6524  -4.1876   0.0000   0.3179
   7.400   2.1277   0.06573   0.06026  -0.1848  0.0920  0.6535  -4.2617   0.0000   0.3163
   7.600   2.1399   0.06646   0.06100  -0.1833  0.0899  0.6559  -4.3416   0.0000   0.3147
   7.800   2.1506   0.06734   0.06187  -0.1817  0.0862  0.6586  -4.4234   0.0000   0.3131
   8.000   2.1601   0.06828   0.06281  -0.1799  0.0824  0.6610  -4.5059   0.0000   0.3114
   8.200   2.1670   0.06943   0.06396  -0.1778  0.0786  0.6631  -4.5827   0.0000   0.3098
   8.400   2.1742   0.07055   0.06508  -0.1758  0.0752  0.6651  -4.6602   0.0000   0.3081
   8.600   2.1825   0.07156   0.06609  -0.1739  0.0724  0.6670  -4.7412   0.0000   0.3065
   8.800   2.1899   0.07265   0.06717  -0.1720  0.0694  0.6688  -4.8200   0.0000   0.3049
   9.000   2.1986   0.07363   0.06817  -0.1702  0.0677  0.6704  -4.9027   0.0000   0.3034
   9.200   2.2042   0.07489   0.06945  -0.1682  0.0655  0.6716  -4.9779   0.0000   0.3018
   9.400   2.2096   0.07615   0.07071  -0.1661  0.0630  0.6726  -5.0527   0.0000   0.3002
   9.600   2.2175   0.07719   0.07177  -0.1644  0.0614  0.6743  -5.1344   0.0000   0.2987
   9.800   2.2228   0.07852   0.07312  -0.1625  0.0594  0.6762  -5.2096   0.0000   0.2971
  10.000   2.2264   0.08001   0.07462  -0.1604  0.0573  0.6779  -5.2805   0.0000   0.2956
  10.200   2.2330   0.08120   0.07583  -0.1587  0.0558  0.6799  -5.3614   0.0000   0.2941
  10.400   2.2361   0.08273   0.07738  -0.1567  0.0537  0.6818  -5.4391   0.0000   0.2926
  10.600   2.2379   0.08439   0.07906  -0.1547  0.0514  0.6835  -5.5127   0.0000   0.2911
  10.800   2.2414   0.08590   0.08060  -0.1529  0.0496  0.6851  -5.5915   0.0000   0.2897
  11.000   2.2421   0.08770   0.08241  -0.1509  0.0476  0.6865  -5.6620   0.0000   0.2883
  11.200   2.2434   0.08946   0.08420  -0.1491  0.0460  0.6877  -5.7344   0.0000   0.2869
  11.400   2.2454   0.09114   0.08592  -0.1475  0.0444  0.6888  -5.8090   0.0000   0.2856
  11.600   2.2450   0.09311   0.08791  -0.1458  0.0427  0.6897  -5.8758   0.0000   0.2843
  11.800   2.2448   0.09509   0.08992  -0.1443  0.0414  0.6906  -5.9431   0.0000   0.2831
  12.000   2.2454   0.09699   0.09185  -0.1429  0.0400  0.6914  -6.0129   0.0000   0.2819
  12.200   2.2444   0.09904   0.09394  -0.1416  0.0386  0.6927  -6.0771   0.0000   0.2807
  12.400   2.2425   0.10123   0.09616  -0.1403  0.0374  0.6945  -6.1384   0.0000   0.2796
  12.600   2.2423   0.10325   0.09823  -0.1393  0.0366  0.6961  -6.2048   0.0000   0.2786
  12.800   2.2418   0.10528   0.10030  -0.1383  0.0357  0.6976  -6.2704   0.0000   0.2776
  13.000   2.2395   0.10753   0.10260  -0.1374  0.0347  0.6990  -6.3291   0.0000   0.2766
  13.200   2.2360   0.10994   0.10505  -0.1367  0.0338  0.7001  -6.3829   0.0000   0.2758
  13.400   2.2347   0.11208   0.10724  -0.1361  0.0332  0.7013  -6.4442   0.0000   0.2749
  13.600   2.2334   0.11421   0.10942  -0.1356  0.0324  0.7025  -6.5053   0.0000   0.2741
  13.800   2.2297   0.11666   0.11192  -0.1353  0.0316  0.7036  -6.5570   0.0000   0.2734
  14.000   2.2244   0.11932   0.11462  -0.1352  0.0307  0.7046  -6.6021   0.0000   0.2728
  14.200   2.2198   0.12191   0.11726  -0.1352  0.0299  0.7057  -6.6488   0.0000   0.2723
  14.400   2.2171   0.12426   0.11966  -0.1353  0.0292  0.7068  -6.7024   0.0000   0.2718
  14.600   2.2132   0.12676   0.12221  -0.1356  0.0285  0.7078  -6.7511   0.0000   0.2713
  14.800   2.2074   0.12953   0.12503  -0.1361  0.0278  0.7086  -6.7912   0.0000   0.2710
  15.000   2.2006   0.13243   0.12798  -0.1368  0.0271  0.7093  -6.8313   0.0000   0.2708
  15.200   2.1947   0.13522   0.13083  -0.1376  0.0265  0.7099  -6.8748   0.0000   0.2706
  15.400   2.1904   0.13777   0.13343  -0.1383  0.0261  0.7106  -6.9249   0.0000   0.2703
  15.600   2.1853   0.14036   0.13608  -0.1392  0.0257  0.7118  -6.9707   0.0000   0.2702
  15.800   2.1784   0.14325   0.13903  -0.1403  0.0252  0.7129  -7.0073   0.0000   0.2702
  16.000   2.1708   0.14624   0.14209  -0.1417  0.0247  0.7140  -7.0399   0.0000   0.2702
  16.200   2.1626   0.14932   0.14523  -0.1432  0.0242  0.7151  -7.0684   0.0000   0.2704
  16.400   2.1546   0.15237   0.14834  -0.1448  0.0237  0.7163  -7.0967   0.0000   0.2706
  16.600   2.1481   0.15520   0.15122  -0.1463  0.0234  0.7174  -7.1315   0.0000   0.2708
  16.800   2.1403   0.15824   0.15433  -0.1481  0.0230  0.7185  -7.1584   0.0000   0.2711
  17.000   2.1324   0.16129   0.15744  -0.1500  0.0226  0.7195  -7.1841   0.0000   0.2714
  17.200   2.1260   0.16410   0.16030  -0.1518  0.0222  0.7206  -7.2164   0.0000   0.2717
  17.400   2.1168   0.16735   0.16362  -0.1540  0.0218  0.7215  -7.2327   0.0000   0.2723
  17.600   2.1068   0.17071   0.16704  -0.1565  0.0214  0.7223  -7.2441   0.0000   0.2729
  17.800   2.0988   0.17376   0.17014  -0.1587  0.0209  0.7231  -7.2646   0.0000   0.2734
  18.000   2.0909   0.17681   0.17325  -0.1610  0.0206  0.7239  -7.2843   0.0000   0.2740
  18.200   2.0829   0.17989   0.17638  -0.1634  0.0203  0.7247  -7.3022   0.0000   0.2746
  18.400   2.0775   0.18254   0.17909  -0.1655  0.0199  0.7254  -7.3336   0.0000   0.2750
  18.600   2.0684   0.18576   0.18237  -0.1682  0.0196  0.7261  -7.3434   0.0000   0.2758
  18.800   2.0629   0.18841   0.18505  -0.1704  0.0191  0.7267  -7.3728   0.0000   0.2762
  19.000   2.0529   0.19177   0.18847  -0.1734  0.0188  0.7272  -7.3744   0.0000   0.2772
  19.200   2.0470   0.19446   0.19120  -0.1757  0.0183  0.7278  -7.3997   0.0000   0.2778
  19.400   2.0383   0.19763   0.19443  -0.1786  0.0180  0.7283  -7.4060   0.0000   0.2787
  19.600   2.0345   0.19995   0.19678  -0.1807  0.0177  0.7291  -7.4426   0.0000   0.2790
  19.800   2.0269   0.20287   0.19977  -0.1834  0.0174  0.7303  -7.4541   0.0000   0.2798
  20.000   2.0222   0.20532   0.20226  -0.1857  0.0171  0.7315  -7.4828   0.0000   0.2803
  20.200   2.0184   0.20763   0.20460  -0.1878  0.0167  0.7326  -7.5163   0.0000   0.2807
  20.400   2.0097   0.21073   0.20775  -0.1909  0.0164  0.7335  -7.5177   0.0000   0.2817
  20.600   2.0057   0.21303   0.21009  -0.1932  0.0161  0.7345  -7.5487   0.0000   0.2821
  20.800   1.9981   0.21596   0.21307  -0.1962  0.0158  0.7353  -7.5539   0.0000   0.2831
  21.000   1.9947   0.21815   0.21530  -0.1984  0.0156  0.7362  -7.5874   0.0000   0.2835
  21.200   1.9924   0.22015   0.21734  -0.2004  0.0153  0.7371  -7.6274   0.0000   0.2837
  21.400   1.9859   0.22287   0.22010  -0.2033  0.0151  0.7379  -7.6373   0.0000   0.2846
  21.600   1.9824   0.22506   0.22232  -0.2056  0.0148  0.7388  -7.6683   0.0000   0.2850
  21.800   1.9798   0.22709   0.22439  -0.2077  0.0145  0.7397  -7.7043   0.0000   0.2853
  22.000   1.9724   0.22995   0.22730  -0.2109  0.0142  0.7405  -7.7048   0.0000   0.2864
  22.200   1.9686   0.23218   0.22955  -0.2134  0.0139  0.7414  -7.7307   0.0000   0.2869
  22.400   1.9660   0.23419   0.23159  -0.2156  0.0135  0.7423  -7.7685   0.0000   0.2873
  22.600   1.9601   0.23678   0.23423  -0.2186  0.0134  0.7431  -7.7809   0.0000   0.2882
  22.800   1.9578   0.23871   0.23619  -0.2208  0.0132  0.7439  -7.8213   0.0000   0.2885
  23.000   1.9564   0.24048   0.23798  -0.2229  0.0129  0.7446  -7.8676   0.0000   0.2887
  23.200   1.9515   0.24286   0.24041  -0.2257  0.0127  0.7451  -7.8855   0.0000   0.2895
  23.400   1.9474   0.24509   0.24267  -0.2284  0.0124  0.7456  -7.9089   0.0000   0.2901
  23.600   1.9455   0.24691   0.24452  -0.2306  0.0122  0.7460  -7.9495   0.0000   0.2904
  23.800   1.9426   0.24886   0.24650  -0.2330  0.0119  0.7466  -7.9826   0.0000   0.2909
  24.000   1.9357   0.25155   0.24923  -0.2363  0.0117  0.7475  -7.9794   0.0000   0.2920
  24.200   1.9341   0.25322   0.25093  -0.2384  0.0115  0.7484  -8.0220   0.0000   0.2922
  24.400   1.9327   0.25485   0.25258  -0.2404  0.0113  0.7494  -8.0662   0.0000   0.2924
  24.600   1.9271   0.25727   0.25505  -0.2435  0.0111  0.7502  -8.0713   0.0000   0.2933
  24.800   1.9249   0.25901   0.25682  -0.2457  0.0110  0.7511  -8.1072   0.0000   0.2936
  25.000   1.9232   0.26064   0.25848  -0.2479  0.0108  0.7520  -8.1474   0.0000   0.2939


