xflr5 v6.47

 Calculated polar for: NACA24018_theta30_Ku4.5_Kl0.5_d0.17_delta4.56

 1 1 Reynolds number fixed          Mach number fixed         

 xtrf =   1.000 (top)        1.000 (bottom)
 Mach =   0.000     Re =     1.800 e 6     Ncrit =   5.000

  alpha     CL        CD       CDp       Cm    Top Xtr Bot Xtr   Cpmin    Chinge    XCp    
 ------- -------- --------- --------- -------- ------- ------- -------- --------- ---------
 -15.000  -0.9393   0.02807   0.02341  -0.0945  0.9134  0.0280  -6.3986   0.0000   0.1259
 -14.800  -0.9492   0.02738   0.02271  -0.0902  0.9103  0.0281  -6.3653   0.0000   0.1322
 -14.600  -0.9323   0.02687   0.02219  -0.0901  0.9092  0.0284  -6.2348   0.0000   0.1307
 -14.400  -0.9118   0.02639   0.02169  -0.0906  0.9083  0.0288  -6.0923   0.0000   0.1282
 -14.200  -0.8894   0.02594   0.02124  -0.0914  0.9077  0.0291  -5.9439   0.0000   0.1249
 -14.000  -0.8650   0.02554   0.02082  -0.0924  0.9072  0.0295  -5.7899   0.0000   0.1210
 -13.800  -0.8386   0.02512   0.02040  -0.0938  0.9067  0.0298  -5.6310   0.0000   0.1160
 -13.600  -0.8114   0.02471   0.01999  -0.0953  0.9064  0.0304  -5.4713   0.0000   0.1104
 -13.400  -0.7832   0.02434   0.01962  -0.0969  0.9061  0.0310  -5.3093   0.0000   0.1041
 -13.200  -0.7678   0.02385   0.01913  -0.0963  0.9024  0.0314  -5.1929   0.0000   0.1026
 -13.000  -0.7423   0.02350   0.01878  -0.0973  0.9013  0.0320  -5.0486   0.0000   0.0969
 -12.800  -0.7151   0.02318   0.01846  -0.0987  0.9006  0.0326  -4.9003   0.0000   0.0900
 -12.600  -0.6870   0.02288   0.01815  -0.1001  0.9000  0.0331  -4.7512   0.0000   0.0821
 -12.400  -0.6579   0.02255   0.01784  -0.1017  0.8996  0.0338  -4.6012   0.0000   0.0730
 -12.200  -0.6286   0.02226   0.01755  -0.1034  0.8992  0.0345  -4.4520   0.0000   0.0629
 -12.000  -0.5980   0.02196   0.01726  -0.1052  0.8989  0.0353  -4.3007   0.0000   0.0512
 -11.800  -0.5672   0.02168   0.01698  -0.1070  0.8986  0.0360  -4.1509   0.0000   0.0380
 -11.600  -0.5364   0.02142   0.01672  -0.1088  0.8983  0.0366  -4.0029   0.0000   0.0234
 -11.400  -0.5049   0.02114   0.01646  -0.1108  0.8981  0.0376  -3.8566   0.0000   0.0062
 -11.200  -0.4908   0.02109   0.01642  -0.1097  0.8953  0.0383  -3.7631   0.0000   0.0021
 -11.000  -0.4654   0.02089   0.01623  -0.1106  0.8936  0.0393  -3.6403   0.0000  -0.0124
 -10.800  -0.4349   0.02060   0.01595  -0.1123  0.8923  0.0402  -3.5059   0.0000  -0.0337
  -9.800  -0.3429   0.02109   0.01651  -0.1103  0.8530  0.0443  -3.0086   0.0000  -0.0994
  -9.600  -0.3052   0.02067   0.01609  -0.1131  0.8472  0.0457  -2.8656   0.0000  -0.1504
  -9.400  -0.2637   0.02012   0.01555  -0.1166  0.8426  0.0476  -2.7219   0.0000  -0.2250
  -9.200  -0.2100   0.01912   0.01452  -0.1221  0.8347  0.0495  -2.5545   0.0000  -0.3707
  -9.000  -0.1377   0.01744   0.01273  -0.1310  0.8126  0.0525  -2.3519   0.0000  -0.7577
  -8.800  -0.1059   0.01701   0.01206  -0.1328  0.7589  0.0544  -2.2391   0.0000  -1.0751
  -8.600  -0.0873   0.01716   0.01209  -0.1324  0.7252  0.0562  -2.1550   0.0000  -1.3493
  -8.400  -0.0660   0.01727   0.01210  -0.1323  0.6984  0.0579  -2.0666   0.0000  -1.8591
  -8.200  -0.0430   0.01736   0.01211  -0.1326  0.6740  0.0599  -1.9761   0.0000  -2.9853
  -8.000  -0.0193   0.01743   0.01210  -0.1330  0.6499  0.0622  -1.8895   0.0000  -6.9549
  -7.800   0.0050   0.01750   0.01208  -0.1335  0.6262  0.0642  -1.8029   0.0000  28.1806
  -7.600   0.0307   0.01755   0.01207  -0.1343  0.6042  0.0668  -1.7150   0.0000   4.8134
  -7.400   0.0563   0.01759   0.01205  -0.1350  0.5854  0.0691  -1.6293   0.0000   2.7455
  -7.200   0.0832   0.01763   0.01204  -0.1360  0.5679  0.0721  -1.5460   0.0000   1.9478
  -7.000   0.1097   0.01767   0.01203  -0.1369  0.5502  0.0752  -1.4649   0.0000   1.5444
  -6.800   0.1373   0.01771   0.01202  -0.1380  0.5313  0.0794  -1.3868   0.0000   1.2904
  -6.600   0.1645   0.01774   0.01199  -0.1390  0.5130  0.0834  -1.3103   0.0000   1.1227
  -6.400   0.1921   0.01778   0.01199  -0.1401  0.4969  0.0880  -1.2345   0.0000   1.0018
  -6.200   0.2200   0.01783   0.01199  -0.1412  0.4806  0.0936  -1.1593   0.0000   0.9103
  -6.000   0.2476   0.01790   0.01201  -0.1423  0.4640  0.0995  -1.0859   0.0000   0.8402
  -5.800   0.2751   0.01797   0.01205  -0.1433  0.4489  0.1059  -1.0138   0.0000   0.7841
  -5.600   0.3027   0.01805   0.01210  -0.1444  0.4367  0.1127  -0.9427   0.0000   0.7381
  -5.400   0.3309   0.01813   0.01216  -0.1456  0.4232  0.1216  -0.8743   0.0000   0.6993
  -5.200   0.3595   0.01823   0.01224  -0.1468  0.4092  0.1321  -0.8208   0.0000   0.6665
  -5.000   0.3883   0.01833   0.01233  -0.1481  0.3973  0.1436  -0.8503   0.0000   0.6383
  -4.800   0.4190   0.01845   0.01245  -0.1498  0.3854  0.1608  -0.8813   0.0000   0.6133
  -4.600   0.4523   0.01860   0.01264  -0.1520  0.3746  0.1874  -0.9142   0.0000   0.5908
  -4.400   0.4878   0.01877   0.01287  -0.1547  0.3639  0.2210  -0.9490   0.0000   0.5709
  -4.200   0.5380   0.01909   0.01335  -0.1603  0.3518  0.2997  -0.9943   0.0000   0.5509
  -4.000   0.5812   0.01938   0.01376  -0.1645  0.3441  0.3556  -1.0352   0.0000   0.5352
  -3.800   0.6154   0.01960   0.01401  -0.1668  0.3367  0.3837  -1.0701   0.0000   0.5227
  -3.600   0.6482   0.01981   0.01425  -0.1688  0.3301  0.4077  -1.1042   0.0000   0.5116
  -3.400   0.6802   0.02002   0.01449  -0.1707  0.3251  0.4292  -1.1380   0.0000   0.5015
  -3.200   0.7125   0.02024   0.01472  -0.1726  0.3184  0.4514  -1.1722   0.0000   0.4924
  -3.000   0.7434   0.02045   0.01494  -0.1742  0.3117  0.4686  -1.2061   0.0000   0.4841
  -2.800   0.7745   0.02068   0.01518  -0.1759  0.3061  0.4860  -1.2427   0.0000   0.4764
  -2.600   0.8064   0.02092   0.01542  -0.1777  0.3002  0.5051  -1.2802   0.0000   0.4692
  -2.400   0.8373   0.02116   0.01567  -0.1793  0.2955  0.5219  -1.3172   0.0000   0.4626
  -2.200   0.8649   0.02137   0.01588  -0.1802  0.2926  0.5336  -1.3517   0.0000   0.4565
  -2.000   0.8916   0.02156   0.01607  -0.1810  0.2887  0.5401  -1.3865   0.0000   0.4508
  -1.800   0.9174   0.02175   0.01624  -0.1815  0.2839  0.5458  -1.4214   0.0000   0.4454
  -1.600   0.9416   0.02192   0.01638  -0.1818  0.2793  0.5506  -1.4554   0.0000   0.4403
  -1.400   0.9651   0.02208   0.01653  -0.1820  0.2769  0.5544  -1.4900   0.0000   0.4355
  -1.200   0.9904   0.02227   0.01672  -0.1825  0.2736  0.5590  -1.5265   0.0000   0.4308
  -1.000   1.0159   0.02248   0.01691  -0.1830  0.2696  0.5643  -1.5634   0.0000   0.4264
  -0.800   1.0402   0.02267   0.01708  -0.1833  0.2651  0.5696  -1.5993   0.0000   0.4222
  -0.600   1.0636   0.02285   0.01724  -0.1834  0.2623  0.5742  -1.6347   0.0000   0.4182
  -0.400   1.0887   0.02306   0.01746  -0.1838  0.2600  0.5792  -1.6718   0.0000   0.4143
  -0.200   1.1137   0.02328   0.01767  -0.1843  0.2572  0.5845  -1.7091   0.0000   0.4106
   0.000   1.1374   0.02348   0.01787  -0.1845  0.2539  0.5891  -1.7453   0.0000   0.4070
   0.200   1.1600   0.02368   0.01804  -0.1844  0.2499  0.5934  -1.7811   0.0000   0.4036
   0.400   1.1835   0.02389   0.01824  -0.1846  0.2467  0.5978  -1.8204   0.0000   0.4002
   0.600   1.2087   0.02413   0.01849  -0.1850  0.2441  0.6034  -1.8617   0.0000   0.3971
   0.800   1.2322   0.02436   0.01872  -0.1852  0.2410  0.6083  -1.9016   0.0000   0.3940
   1.000   1.2546   0.02458   0.01892  -0.1851  0.2378  0.6124  -1.9406   0.0000   0.3910
   1.200   1.2762   0.02479   0.01911  -0.1849  0.2344  0.6157  -1.9788   0.0000   0.3880
   1.400   1.3000   0.02505   0.01937  -0.1851  0.2318  0.6202  -2.0197   0.0000   0.3852
   1.600   1.3238   0.02530   0.01963  -0.1853  0.2292  0.6253  -2.0639   0.0000   0.3825
   1.800   1.3464   0.02555   0.01988  -0.1853  0.2259  0.6302  -2.1069   0.0000   0.3799
   2.000   1.3678   0.02579   0.02010  -0.1850  0.2224  0.6342  -2.1490   0.0000   0.3773
   2.200   1.3894   0.02606   0.02035  -0.1848  0.2186  0.6380  -2.1915   0.0000   0.3747
   2.400   1.4130   0.02634   0.02064  -0.1850  0.2169  0.6429  -2.2365   0.0000   0.3723
   2.600   1.4353   0.02660   0.02092  -0.1849  0.2146  0.6475  -2.2802   0.0000   0.3699
   2.800   1.4565   0.02687   0.02118  -0.1846  0.2118  0.6514  -2.3231   0.0000   0.3676
   3.000   1.4768   0.02715   0.02144  -0.1842  0.2083  0.6546  -2.3659   0.0000   0.3652
   3.200   1.4972   0.02743   0.02171  -0.1838  0.2047  0.6577  -2.4114   0.0000   0.3630
   3.400   1.5195   0.02773   0.02203  -0.1837  0.2025  0.6622  -2.4595   0.0000   0.3608
   3.600   1.5409   0.02803   0.02233  -0.1834  0.2001  0.6665  -2.5067   0.0000   0.3587
   3.800   1.5612   0.02833   0.02263  -0.1830  0.1970  0.6703  -2.5530   0.0000   0.3565
   4.000   1.5808   0.02866   0.02294  -0.1825  0.1932  0.6738  -2.6010   0.0000   0.3544
   4.200   1.6006   0.02895   0.02323  -0.1820  0.1907  0.6767  -2.6503   0.0000   0.3524
   4.400   1.6211   0.02927   0.02356  -0.1816  0.1883  0.6803  -2.7010   0.0000   0.3504
   4.600   1.6410   0.02960   0.02390  -0.1811  0.1855  0.6838  -2.7528   0.0000   0.3484
   4.800   1.6600   0.02995   0.02424  -0.1804  0.1822  0.6871  -2.8038   0.0000   0.3464
   5.000   1.6790   0.03031   0.02459  -0.1798  0.1792  0.6905  -2.8565   0.0000   0.3445
   5.200   1.6982   0.03064   0.02493  -0.1792  0.1771  0.6937  -2.9102   0.0000   0.3426
   5.400   1.7168   0.03099   0.02529  -0.1785  0.1743  0.6963  -2.9633   0.0000   0.3407
   5.600   1.7344   0.03140   0.02569  -0.1776  0.1707  0.6989  -3.0152   0.0000   0.3388
   5.800   1.7515   0.03184   0.02613  -0.1767  0.1673  0.7019  -3.0668   0.0000   0.3370
   6.000   1.7689   0.03226   0.02655  -0.1758  0.1643  0.7050  -3.1246   0.0000   0.3351
   6.200   1.7857   0.03271   0.02701  -0.1748  0.1609  0.7081  -3.1818   0.0000   0.3333
   6.400   1.8019   0.03320   0.02748  -0.1737  0.1574  0.7110  -3.2390   0.0000   0.3315
   6.600   1.8190   0.03363   0.02792  -0.1728  0.1550  0.7136  -3.3013   0.0000   0.3297
   6.800   1.8358   0.03409   0.02838  -0.1719  0.1519  0.7158  -3.3645   0.0000   0.3280
   7.000   1.8511   0.03461   0.02889  -0.1707  0.1481  0.7181  -3.4269   0.0000   0.3262
   7.200   1.8662   0.03511   0.02940  -0.1695  0.1448  0.7208  -3.4932   0.0000   0.3245
   7.400   1.8813   0.03561   0.02990  -0.1683  0.1415  0.7233  -3.5599   0.0000   0.3227
   7.600   1.8948   0.03622   0.03051  -0.1668  0.1380  0.7257  -3.6253   0.0000   0.3210
   7.800   1.9085   0.03682   0.03112  -0.1654  0.1352  0.7282  -3.6949   0.0000   0.3192
   8.000   1.9230   0.03741   0.03172  -0.1642  0.1324  0.7306  -3.7711   0.0000   0.3176
   8.200   1.9361   0.03810   0.03239  -0.1627  0.1283  0.7328  -3.8449   0.0000   0.3159
   8.400   1.9494   0.03878   0.03308  -0.1613  0.1246  0.7345  -3.9197   0.0000   0.3142
   8.600   1.9623   0.03950   0.03378  -0.1599  0.1206  0.7359  -3.9942   0.0000   0.3125
   8.800   1.9724   0.04030   0.03458  -0.1581  0.1171  0.7378  -4.0630   0.0000   0.3108
   9.000   1.9836   0.04100   0.03531  -0.1564  0.1145  0.7400  -4.1344   0.0000   0.3091
   9.200   1.9940   0.04177   0.03609  -0.1546  0.1114  0.7421  -4.2047   0.0000   0.3074
   9.400   2.0041   0.04259   0.03692  -0.1529  0.1086  0.7441  -4.2745   0.0000   0.3057
   9.600   2.0150   0.04338   0.03772  -0.1512  0.1063  0.7461  -4.3513   0.0000   0.3041
   9.800   2.0242   0.04431   0.03867  -0.1494  0.1036  0.7478  -4.4275   0.0000   0.3025
  10.000   2.0327   0.04533   0.03970  -0.1476  0.1005  0.7495  -4.5025   0.0000   0.3008
  10.200   2.0425   0.04629   0.04067  -0.1459  0.0974  0.7513  -4.5833   0.0000   0.2992
  10.400   2.0483   0.04759   0.04196  -0.1438  0.0935  0.7529  -4.6550   0.0000   0.2976
  10.600   2.0568   0.04872   0.04310  -0.1421  0.0903  0.7543  -4.7338   0.0000   0.2960
  10.800   2.0624   0.05004   0.04443  -0.1402  0.0871  0.7555  -4.8055   0.0000   0.2944
  11.000   2.0679   0.05121   0.04563  -0.1381  0.0849  0.7571  -4.8769   0.0000   0.2928
  11.200   2.0729   0.05245   0.04690  -0.1361  0.0824  0.7587  -4.9474   0.0000   0.2913
  11.400   2.0757   0.05392   0.04839  -0.1340  0.0798  0.7602  -5.0122   0.0000   0.2897
  11.600   2.0799   0.05532   0.04982  -0.1321  0.0776  0.7618  -5.0832   0.0000   0.2882
  11.800   2.0825   0.05692   0.05145  -0.1301  0.0751  0.7633  -5.1501   0.0000   0.2867
  12.000   2.0841   0.05867   0.05323  -0.1282  0.0729  0.7647  -5.2144   0.0000   0.2852
  12.200   2.0876   0.06030   0.05490  -0.1266  0.0709  0.7660  -5.2842   0.0000   0.2839
  12.400   2.0890   0.06219   0.05683  -0.1249  0.0687  0.7673  -5.3521   0.0000   0.2825
  12.600   2.0897   0.06422   0.05889  -0.1233  0.0668  0.7684  -5.4187   0.0000   0.2813
  12.800   2.0910   0.06625   0.06096  -0.1219  0.0647  0.7696  -5.4868   0.0000   0.2800
  13.000   2.0897   0.06859   0.06333  -0.1206  0.0626  0.7706  -5.5472   0.0000   0.2789
  13.200   2.0896   0.07088   0.06566  -0.1194  0.0608  0.7717  -5.6108   0.0000   0.2778
  13.400   2.0889   0.07328   0.06810  -0.1183  0.0588  0.7727  -5.6726   0.0000   0.2768
  13.600   2.0851   0.07601   0.07087  -0.1173  0.0570  0.7735  -5.7240   0.0000   0.2758
  13.800   2.0815   0.07850   0.07342  -0.1162  0.0556  0.7747  -5.7752   0.0000   0.2748
  14.000   2.0769   0.08116   0.07615  -0.1153  0.0540  0.7757  -5.8226   0.0000   0.2740
  14.200   2.0704   0.08412   0.07916  -0.1146  0.0526  0.7766  -5.8630   0.0000   0.2732
  14.400   2.0647   0.08701   0.08212  -0.1141  0.0513  0.7774  -5.9053   0.0000   0.2725
  14.600   2.0594   0.08989   0.08506  -0.1137  0.0501  0.7782  -5.9484   0.0000   0.2719
  14.800   2.0525   0.09302   0.08825  -0.1135  0.0488  0.7791  -5.9850   0.0000   0.2714
  15.000   2.0440   0.09640   0.09170  -0.1136  0.0476  0.7799  -6.0149   0.0000   0.2711
  15.200   2.0377   0.09954   0.09490  -0.1138  0.0466  0.7809  -6.0517   0.0000   0.2707
  15.400   2.0308   0.10280   0.09823  -0.1142  0.0455  0.7818  -6.0855   0.0000   0.2705
  15.600   2.0224   0.10632   0.10181  -0.1149  0.0444  0.7827  -6.1124   0.0000   0.2704
  15.800   2.0126   0.11009   0.10565  -0.1158  0.0434  0.7836  -6.1324   0.0000   0.2705
  16.000   2.0046   0.11366   0.10929  -0.1169  0.0425  0.7844  -6.1580   0.0000   0.2706
  16.200   1.9963   0.11729   0.11299  -0.1181  0.0416  0.7852  -6.1813   0.0000   0.2708
  16.400   1.9872   0.12107   0.11684  -0.1195  0.0407  0.7859  -6.1997   0.0000   0.2711
  16.600   1.9771   0.12500   0.12084  -0.1212  0.0399  0.7866  -6.2141   0.0000   0.2716
  16.800   1.9669   0.12899   0.12490  -0.1231  0.0392  0.7873  -6.2265   0.0000   0.2722
  17.000   1.9599   0.13253   0.12851  -0.1249  0.0385  0.7880  -6.2513   0.0000   0.2726
  17.200   1.9525   0.13614   0.13218  -0.1268  0.0377  0.7886  -6.2732   0.0000   0.2731
  17.400   1.9431   0.14007   0.13618  -0.1290  0.0370  0.7893  -6.2849   0.0000   0.2739
  17.600   1.9332   0.14411   0.14029  -0.1315  0.0363  0.7899  -6.2924   0.0000   0.2748
  17.800   1.9233   0.14816   0.14441  -0.1341  0.0356  0.7905  -6.2979   0.0000   0.2758
  18.000   1.9159   0.15142   0.14773  -0.1360  0.0350  0.7914  -6.3161   0.0000   0.2763
  18.200   1.9061   0.15506   0.15144  -0.1383  0.0344  0.7922  -6.3213   0.0000   0.2772
  18.400   1.8969   0.15862   0.15507  -0.1406  0.0338  0.7929  -6.3275   0.0000   0.2780
  18.600   1.8890   0.16195   0.15845  -0.1428  0.0331  0.7937  -6.3421   0.0000   0.2788
  18.800   1.8786   0.16576   0.16232  -0.1455  0.0325  0.7943  -6.3422   0.0000   0.2799
  19.000   1.8717   0.16899   0.16560  -0.1478  0.0319  0.7950  -6.3599   0.0000   0.2807
  19.200   1.8639   0.17240   0.16907  -0.1503  0.0313  0.7957  -6.3716   0.0000   0.2817
  19.400   1.8591   0.17533   0.17205  -0.1525  0.0307  0.7964  -6.3982   0.0000   0.2823
  19.600   1.8510   0.17885   0.17562  -0.1553  0.0301  0.7970  -6.4049   0.0000   0.2834
  19.800   1.8457   0.18187   0.17868  -0.1577  0.0294  0.7978  -6.4270   0.0000   0.2842
  20.000   1.8374   0.18547   0.18234  -0.1607  0.0288  0.7986  -6.4294   0.0000   0.2855
  20.200   1.8352   0.18807   0.18498  -0.1629  0.0283  0.7996  -6.4661   0.0000   0.2860
  20.400   1.8297   0.19127   0.18823  -0.1657  0.0278  0.8005  -6.4823   0.0000   0.2871
  20.600   1.8269   0.19400   0.19100  -0.1681  0.0272  0.8014  -6.5141   0.0000   0.2878
  20.800   1.8229   0.19697   0.19401  -0.1708  0.0266  0.8022  -6.5371   0.0000   0.2887
  21.000   1.8177   0.20017   0.19725  -0.1737  0.0260  0.8030  -6.5514   0.0000   0.2898
  21.200   1.8160   0.20278   0.19989  -0.1762  0.0255  0.8038  -6.5864   0.0000   0.2905
  21.400   1.8120   0.20580   0.20296  -0.1791  0.0250  0.8045  -6.6060   0.0000   0.2915
  21.600   1.8105   0.20840   0.20560  -0.1816  0.0244  0.8052  -6.6405   0.0000   0.2922
  21.800   1.8086   0.21106   0.20828  -0.1842  0.0238  0.8058  -6.6718   0.0000   0.2930
  22.000   1.8037   0.21427   0.21153  -0.1875  0.0232  0.8064  -6.6817   0.0000   0.2942
  22.200   1.8020   0.21679   0.21408  -0.1901  0.0227  0.8069  -6.7138   0.0000   0.2950
  22.400   1.7992   0.21921   0.21654  -0.1924  0.0223  0.8076  -6.7401   0.0000   0.2956
  22.600   1.7956   0.22175   0.21913  -0.1949  0.0219  0.8082  -6.7603   0.0000   0.2965
  22.800   1.7935   0.22401   0.22142  -0.1971  0.0214  0.8088  -6.7904   0.0000   0.2970
  23.000   1.7896   0.22660   0.22405  -0.1998  0.0210  0.8094  -6.8063   0.0000   0.2979
  23.200   1.7853   0.22924   0.22671  -0.2025  0.0205  0.8101  -6.8192   0.0000   0.2989
  23.400   1.7834   0.23141   0.22892  -0.2047  0.0201  0.8108  -6.8485   0.0000   0.2995
  23.600   1.7807   0.23376   0.23131  -0.2071  0.0198  0.8115  -6.8712   0.0000   0.3002
  23.800   1.7785   0.23602   0.23361  -0.2095  0.0194  0.8122  -6.8966   0.0000   0.3008
  24.000   1.7776   0.23810   0.23572  -0.2118  0.0190  0.8129  -6.9304   0.0000   0.3013
  24.200   1.7751   0.24050   0.23815  -0.2144  0.0187  0.8136  -6.9513   0.0000   0.3021
  24.400   1.7721   0.24306   0.24074  -0.2172  0.0183  0.8143  -6.9654   0.0000   0.3031
  24.600   1.7706   0.24530   0.24300  -0.2198  0.0179  0.8149  -6.9920   0.0000   0.3038
  24.800   1.7690   0.24758   0.24533  -0.2224  0.0176  0.8156  -7.0160   0.0000   0.3045
  25.000   1.7678   0.24981   0.24759  -0.2250  0.0173  0.8163  -7.0419   0.0000   0.3052


