xflr5 v6.47

 Calculated polar for: NACA24018_theta30_Ku4.5_Kl0.5_d0.28_delta9.02

 1 1 Reynolds number fixed          Mach number fixed         

 xtrf =   1.000 (top)        1.000 (bottom)
 Mach =   0.000     Re =     0.400 e 6     Ncrit =   5.000

  alpha     CL        CD       CDp       Cm    Top Xtr Bot Xtr   Cpmin    Chinge    XCp    
 ------- -------- --------- --------- -------- ------- ------- -------- --------- ---------
 -15.000  -0.6866   0.05286   0.04766  -0.0911  0.8699  0.0456  -5.1174   0.0000   0.0910
 -14.800  -0.6642   0.05234   0.04712  -0.0930  0.8696  0.0463  -4.9934   0.0000   0.0835
 -14.600  -0.6404   0.05197   0.04675  -0.0950  0.8694  0.0470  -4.8623   0.0000   0.0750
 -14.200  -0.6149   0.05038   0.04515  -0.0954  0.8657  0.0482  -4.6753   0.0000   0.0685
 -14.000  -0.5895   0.04996   0.04470  -0.0971  0.8638  0.0491  -4.5428   0.0000   0.0585
 -13.200  -0.4795   0.04880   0.04347  -0.1050  0.8556  0.0530  -4.0073   0.0000   0.0021
 -13.000  -0.4491   0.04863   0.04327  -0.1071  0.8538  0.0543  -3.8713   0.0000  -0.0183
 -12.800  -0.4179   0.04857   0.04317  -0.1092  0.8526  0.0555  -3.7355   0.0000  -0.0424
 -12.600  -0.3842   0.04856   0.04317  -0.1119  0.8519  0.0567  -3.5935   0.0000  -0.0738
 -12.400  -0.3570   0.04813   0.04275  -0.1135  0.8463  0.0579  -3.4699   0.0000  -0.1018
 -12.200  -0.3259   0.04810   0.04271  -0.1156  0.8447  0.0594  -3.3370   0.0000  -0.1404
 -12.000  -0.2945   0.04813   0.04270  -0.1176  0.8435  0.0611  -3.2056   0.0000  -0.1875
 -11.800  -0.2602   0.04820   0.04280  -0.1202  0.8428  0.0628  -3.0676   0.0000  -0.2536
 -11.600  -0.2263   0.04833   0.04293  -0.1226  0.8421  0.0647  -2.9321   0.0000  -0.3378
 -11.400  -0.2026   0.04815   0.04274  -0.1235  0.8371  0.0664  -2.8255   0.0000  -0.4090
 -11.200  -0.1703   0.04822   0.04282  -0.1256  0.8354  0.0683  -2.6986   0.0000  -0.5442
 -11.000  -0.1360   0.04833   0.04295  -0.1281  0.8342  0.0706  -2.5673   0.0000  -0.7599
 -10.800  -0.1020   0.04842   0.04303  -0.1303  0.8333  0.0732  -2.4455   0.0000  -1.1141
 -10.400  -0.0397   0.04856   0.04321  -0.1341  0.8280  0.0784  -2.2303   0.0000  -3.3291
 -10.200  -0.0073   0.04858   0.04322  -0.1361  0.8257  0.0815  -2.1224   0.0000  -19.5008
 -10.000   0.0318   0.04859   0.04326  -0.1391  0.8241  0.0853  -2.0017   0.0000   4.8600
  -9.800   0.0697   0.04854   0.04319  -0.1417  0.8229  0.0893  -1.8860   0.0000   2.3834
  -9.600   0.0996   0.04867   0.04337  -0.1434  0.8189  0.0932  -1.7878   0.0000   1.7576
  -9.400   0.1299   0.04879   0.04350  -0.1450  0.8161  0.0976  -1.6904   0.0000   1.4150
  -9.200   0.1668   0.04899   0.04374  -0.1477  0.8145  0.1030  -1.5824   0.0000   1.1712
  -9.000   0.2029   0.04913   0.04391  -0.1501  0.8133  0.1090  -1.4825   0.0000   1.0178
  -8.800   0.2397   0.04928   0.04408  -0.1527  0.8124  0.1163  -1.3829   0.0000   0.9091
  -7.200   0.5570   0.05755   0.05326  -0.1798  0.7370  0.3365  -0.8775   0.0000   0.5768
  -6.800   0.6997   0.05693   0.05270  -0.1946  0.7119  0.4325  -1.0039   0.0000   0.5301
  -6.600   0.7719   0.05458   0.05018  -0.2017  0.6908  0.4551  -1.0701   0.0000   0.5126
  -6.400   0.8329   0.05264   0.04792  -0.2072  0.6487  0.4721  -1.1289   0.0000   0.4997
  -6.200   0.8593   0.05273   0.04776  -0.2077  0.6078  0.4815  -1.1603   0.0000   0.4922
  -6.000   0.8810   0.05342   0.04825  -0.2077  0.5746  0.4891  -1.1878   0.0000   0.4857
  -5.800   0.8965   0.05390   0.04859  -0.2066  0.5475  0.4957  -1.2105   0.0000   0.4799
  -5.600   0.9216   0.05489   0.04942  -0.2071  0.5207  0.5074  -1.2419   0.0000   0.4738
  -5.400   0.9356   0.05522   0.04967  -0.2058  0.5004  0.5164  -1.2648   0.0000   0.4686
  -5.200   0.9641   0.05624   0.05055  -0.2069  0.4796  0.5255  -1.2998   0.0000   0.4628
  -4.800   0.9909   0.05658   0.05077  -0.2039  0.4504  0.5314  -1.3449   0.0000   0.4533
  -4.600   1.0099   0.05703   0.05112  -0.2034  0.4362  0.5350  -1.3731   0.0000   0.4485
  -4.400   1.0336   0.05771   0.05171  -0.2037  0.4221  0.5392  -1.4060   0.0000   0.4438
  -4.000   1.0716   0.05851   0.05238  -0.2026  0.3991  0.5457  -1.4642   0.0000   0.4351
  -3.600   1.1006   0.05883   0.05262  -0.2000  0.3815  0.5504  -1.5148   0.0000   0.4271
  -3.400   1.1193   0.05924   0.05297  -0.1994  0.3726  0.5537  -1.5440   0.0000   0.4233
  -3.200   1.1435   0.05987   0.05355  -0.1998  0.3643  0.5578  -1.5792   0.0000   0.4194
  -3.000   1.1715   0.06075   0.05436  -0.2007  0.3559  0.5621  -1.6189   0.0000   0.4158
  -2.800   1.1827   0.06073   0.05433  -0.1989  0.3506  0.5638  -1.6428   0.0000   0.4123
  -2.600   1.1951   0.06075   0.05435  -0.1972  0.3449  0.5656  -1.6686   0.0000   0.4088
  -2.400   1.2085   0.06087   0.05445  -0.1957  0.3390  0.5676  -1.6962   0.0000   0.4055
  -2.200   1.2244   0.06114   0.05469  -0.1947  0.3336  0.5702  -1.7263   0.0000   0.4022
  -2.000   1.2438   0.06154   0.05508  -0.1942  0.3282  0.5735  -1.7601   0.0000   0.3991
  -1.800   1.2693   0.06231   0.05581  -0.1948  0.3226  0.5777  -1.8002   0.0000   0.3960
  -1.600   1.2930   0.06306   0.05650  -0.1951  0.3174  0.5811  -1.8405   0.0000   0.3931
  -1.400   1.3040   0.06301   0.05648  -0.1932  0.3138  0.5825  -1.8674   0.0000   0.3901
  -1.200   1.3153   0.06303   0.05651  -0.1914  0.3097  0.5840  -1.8949   0.0000   0.3872
  -1.000   1.3277   0.06314   0.05663  -0.1898  0.3055  0.5857  -1.9235   0.0000   0.3843
  -0.800   1.3411   0.06338   0.05684  -0.1883  0.3015  0.5878  -1.9534   0.0000   0.3815
  -0.600   1.3569   0.06368   0.05715  -0.1873  0.2980  0.5903  -1.9858   0.0000   0.3788
  -0.400   1.3765   0.06419   0.05766  -0.1869  0.2939  0.5935  -2.0226   0.0000   0.3762
  -0.200   1.4096   0.06549   0.05893  -0.1887  0.2886  0.5987  -2.0747   0.0000   0.3740
   0.000   1.4217   0.06573   0.05915  -0.1871  0.2852  0.6002  -2.1059   0.0000   0.3714
   0.200   1.4310   0.06580   0.05924  -0.1851  0.2823  0.6013  -2.1345   0.0000   0.3688
   0.400   1.4416   0.06586   0.05934  -0.1832  0.2795  0.6025  -2.1647   0.0000   0.3663
   0.600   1.4529   0.06600   0.05950  -0.1814  0.2763  0.6039  -2.1958   0.0000   0.3638
   0.800   1.4645   0.06622   0.05972  -0.1798  0.2729  0.6055  -2.2276   0.0000   0.3614
   1.000   1.4768   0.06653   0.06003  -0.1782  0.2696  0.6073  -2.2602   0.0000   0.3590
   1.200   1.4904   0.06696   0.06045  -0.1769  0.2665  0.6094  -2.2944   0.0000   0.3567
   1.400   1.5086   0.06747   0.06099  -0.1764  0.2638  0.6120  -2.3344   0.0000   0.3546
   1.600   1.5459   0.06910   0.06262  -0.1789  0.2592  0.6181  -2.4006   0.0000   0.3530
   1.800   1.5541   0.06920   0.06274  -0.1767  0.2563  0.6190  -2.4316   0.0000   0.3507
   2.000   1.5624   0.06937   0.06292  -0.1746  0.2533  0.6199  -2.4630   0.0000   0.3484
   2.200   1.5709   0.06964   0.06318  -0.1726  0.2504  0.6208  -2.4946   0.0000   0.3462
   2.400   1.5813   0.06982   0.06341  -0.1708  0.2479  0.6218  -2.5287   0.0000   0.3440
   2.600   1.5919   0.07007   0.06370  -0.1690  0.2451  0.6229  -2.5632   0.0000   0.3419
   2.800   1.6025   0.07043   0.06409  -0.1673  0.2422  0.6240  -2.5987   0.0000   0.3398
   3.000   1.6131   0.07088   0.06455  -0.1657  0.2394  0.6253  -2.6352   0.0000   0.3377
   3.200   1.6239   0.07141   0.06510  -0.1641  0.2366  0.6268  -2.6722   0.0000   0.3357
   3.400   1.6364   0.07203   0.06573  -0.1628  0.2339  0.6289  -2.7118   0.0000   0.3338
   3.600   1.6550   0.07280   0.06655  -0.1624  0.2309  0.6320  -2.7622   0.0000   0.3321
   3.800   1.6848   0.07435   0.06810  -0.1639  0.2267  0.6373  -2.8324   0.0000   0.3308
   4.000   1.6928   0.07474   0.06852  -0.1619  0.2239  0.6379  -2.8691   0.0000   0.3289
   4.200   1.7003   0.07521   0.06900  -0.1599  0.2212  0.6385  -2.9053   0.0000   0.3269
   4.400   1.7079   0.07569   0.06951  -0.1580  0.2188  0.6392  -2.9419   0.0000   0.3250
   4.600   1.7166   0.07610   0.06997  -0.1561  0.2165  0.6400  -2.9829   0.0000   0.3231
   4.800   1.7249   0.07658   0.07050  -0.1543  0.2138  0.6409  -3.0239   0.0000   0.3212
   5.000   1.7329   0.07713   0.07108  -0.1525  0.2110  0.6418  -3.0650   0.0000   0.3194
   5.200   1.7407   0.07777   0.07175  -0.1507  0.2082  0.6429  -3.1073   0.0000   0.3176
   5.400   1.7482   0.07852   0.07251  -0.1489  0.2056  0.6440  -3.1493   0.0000   0.3158
   5.600   1.7581   0.07919   0.07322  -0.1475  0.2031  0.6454  -3.1975   0.0000   0.3141
   5.800   1.7690   0.07997   0.07406  -0.1462  0.2002  0.6470  -3.2494   0.0000   0.3125
   6.000   1.7808   0.08095   0.07507  -0.1452  0.1971  0.6490  -3.3035   0.0000   0.3109
   6.200   1.8100   0.08322   0.07734  -0.1470  0.1929  0.6557  -3.3926   0.0000   0.3101
   6.400   1.8140   0.08399   0.07813  -0.1449  0.1905  0.6562  -3.4390   0.0000   0.3084
   6.600   1.8206   0.08454   0.07875  -0.1431  0.1880  0.6568  -3.4910   0.0000   0.3067
   6.800   1.8261   0.08526   0.07953  -0.1412  0.1853  0.6574  -3.5409   0.0000   0.3050
   7.000   1.8310   0.08610   0.08041  -0.1394  0.1825  0.6580  -3.5899   0.0000   0.3034
   7.200   1.8356   0.08704   0.08138  -0.1376  0.1797  0.6586  -3.6383   0.0000   0.3018
   7.400   1.8389   0.08817   0.08252  -0.1358  0.1772  0.6593  -3.6853   0.0000   0.3002
   7.600   1.8455   0.08902   0.08344  -0.1343  0.1747  0.6601  -3.7400   0.0000   0.2987
   7.800   1.8515   0.08996   0.08445  -0.1328  0.1719  0.6610  -3.7940   0.0000   0.2972
   8.000   1.8564   0.09107   0.08560  -0.1313  0.1690  0.6620  -3.8454   0.0000   0.2957
   8.200   1.8599   0.09236   0.08692  -0.1299  0.1662  0.6631  -3.8974   0.0000   0.2943
   8.400   1.8636   0.09373   0.08832  -0.1285  0.1636  0.6645  -3.9503   0.0000   0.2930
   8.600   1.8710   0.09490   0.08956  -0.1275  0.1608  0.6662  -4.0121   0.0000   0.2917
   8.800   1.8787   0.09638   0.09109  -0.1268  0.1576  0.6684  -4.0794   0.0000   0.2905
   9.000   1.8995   0.09920   0.09392  -0.1285  0.1532  0.6741  -4.1838   0.0000   0.2900
   9.200   1.9004   0.10057   0.09534  -0.1271  0.1507  0.6745  -4.2336   0.0000   0.2888
   9.400   1.9031   0.10174   0.09658  -0.1258  0.1479  0.6749  -4.2882   0.0000   0.2875
   9.600   1.9040   0.10315   0.09805  -0.1246  0.1450  0.6754  -4.3378   0.0000   0.2863
   9.800   1.9036   0.10469   0.09963  -0.1234  0.1423  0.6759  -4.3855   0.0000   0.2851
  10.000   1.9018   0.10643   0.10140  -0.1223  0.1399  0.6765  -4.4290   0.0000   0.2841
  10.200   1.9037   0.10773   0.10278  -0.1213  0.1375  0.6772  -4.4830   0.0000   0.2829
  10.400   1.9045   0.10920   0.10432  -0.1204  0.1350  0.6779  -4.5356   0.0000   0.2819
  10.600   1.9037   0.11092   0.10610  -0.1197  0.1324  0.6787  -4.5836   0.0000   0.2810
  10.800   1.9020   0.11282   0.10804  -0.1191  0.1299  0.6795  -4.6283   0.0000   0.2801
  11.000   1.9015   0.11465   0.10993  -0.1187  0.1276  0.6804  -4.6771   0.0000   0.2793
  11.200   1.9027   0.11636   0.11171  -0.1184  0.1250  0.6814  -4.7325   0.0000   0.2785
  11.400   1.9026   0.11832   0.11373  -0.1183  0.1221  0.6824  -4.7830   0.0000   0.2779
  11.600   1.9004   0.12061   0.11606  -0.1185  0.1194  0.6835  -4.8265   0.0000   0.2774
  11.800   1.8997   0.12283   0.11833  -0.1188  0.1169  0.6848  -4.8743   0.0000   0.2769
  12.000   1.9017   0.12489   0.12047  -0.1193  0.1140  0.6863  -4.9309   0.0000   0.2765
  12.200   1.9028   0.12741   0.12304  -0.1203  0.1110  0.6883  -4.9838   0.0000   0.2763
  12.400   1.9087   0.13098   0.12665  -0.1229  0.1078  0.6923  -5.0555   0.0000   0.2766
  12.600   1.9060   0.13287   0.12861  -0.1231  0.1055  0.6927  -5.0987   0.0000   0.2762
  12.800   1.9019   0.13496   0.13077  -0.1235  0.1031  0.6932  -5.1365   0.0000   0.2759
  13.000   1.8961   0.13734   0.13320  -0.1242  0.1007  0.6936  -5.1668   0.0000   0.2757
  13.400   1.8854   0.14211   0.13809  -0.1259  0.0964  0.6945  -5.2280   0.0000   0.2756
  13.600   1.8811   0.14440   0.14046  -0.1269  0.0941  0.6950  -5.2619   0.0000   0.2756
  13.800   1.8751   0.14699   0.14310  -0.1282  0.0918  0.6955  -5.2877   0.0000   0.2758
  14.000   1.8674   0.14985   0.14601  -0.1299  0.0898  0.6960  -5.3049   0.0000   0.2762
  14.200   1.8642   0.15209   0.14833  -0.1311  0.0877  0.6967  -5.3407   0.0000   0.2762
  14.400   1.8597   0.15455   0.15084  -0.1326  0.0855  0.6973  -5.3701   0.0000   0.2764
  14.600   1.8533   0.15732   0.15367  -0.1344  0.0834  0.6979  -5.3900   0.0000   0.2769
  14.800   1.8460   0.16025   0.15664  -0.1365  0.0815  0.6986  -5.4050   0.0000   0.2775
  15.000   1.8435   0.16252   0.15898  -0.1381  0.0795  0.6994  -5.4404   0.0000   0.2777
  15.200   1.8387   0.16517   0.16169  -0.1401  0.0774  0.7003  -5.4644   0.0000   0.2782
  15.400   1.8327   0.16802   0.16459  -0.1424  0.0753  0.7012  -5.4818   0.0000   0.2789
  15.600   1.8278   0.17077   0.16738  -0.1446  0.0735  0.7023  -5.5028   0.0000   0.2795
  15.800   1.8250   0.17330   0.16998  -0.1468  0.0715  0.7036  -5.5328   0.0000   0.2800
  16.000   1.8218   0.17604   0.17277  -0.1492  0.0694  0.7051  -5.5595   0.0000   0.2807
  16.200   1.8175   0.17927   0.17603  -0.1524  0.0675  0.7068  -5.5776   0.0000   0.2817
  16.400   1.8236   0.18251   0.17932  -0.1562  0.0652  0.7101  -5.6381   0.0000   0.2827
  16.600   1.8183   0.18496   0.18183  -0.1583  0.0634  0.7105  -5.6549   0.0000   0.2832
  16.800   1.8127   0.18744   0.18434  -0.1605  0.0618  0.7108  -5.6698   0.0000   0.2839
  17.000   1.8066   0.19005   0.18699  -0.1629  0.0603  0.7111  -5.6800   0.0000   0.2847
  17.200   1.8039   0.19207   0.18907  -0.1646  0.0587  0.7116  -5.7086   0.0000   0.2849
  17.400   1.7999   0.19434   0.19138  -0.1667  0.0571  0.7120  -5.7289   0.0000   0.2855
  17.600   1.7948   0.19681   0.19388  -0.1691  0.0556  0.7124  -5.7419   0.0000   0.2862
  17.800   1.7909   0.19908   0.19618  -0.1713  0.0542  0.7129  -5.7630   0.0000   0.2868
  18.000   1.7881   0.20120   0.19836  -0.1733  0.0528  0.7134  -5.7890   0.0000   0.2872
  18.200   1.7850   0.20336   0.20056  -0.1754  0.0513  0.7140  -5.8140   0.0000   0.2877
  18.400   1.7813   0.20560   0.20282  -0.1777  0.0500  0.7147  -5.8360   0.0000   0.2883
  18.600   1.7773   0.20792   0.20518  -0.1801  0.0488  0.7154  -5.8544   0.0000   0.2891
  18.800   1.7758   0.20982   0.20713  -0.1820  0.0475  0.7162  -5.8879   0.0000   0.2894
  19.000   1.7738   0.21184   0.20919  -0.1842  0.0462  0.7171  -5.9175   0.0000   0.2898
  19.200   1.7702   0.21417   0.21155  -0.1867  0.0450  0.7180  -5.9357   0.0000   0.2906
  19.400   1.7681   0.21630   0.21370  -0.1891  0.0438  0.7190  -5.9622   0.0000   0.2911
  19.600   1.7680   0.21819   0.21564  -0.1912  0.0426  0.7201  -5.9998   0.0000   0.2915
  19.800   1.7663   0.22043   0.21792  -0.1939  0.0414  0.7211  -6.0256   0.0000   0.2921
  20.000   1.7652   0.22267   0.22018  -0.1966  0.0403  0.7223  -6.0538   0.0000   0.2928
  20.200   1.7652   0.22485   0.22238  -0.1993  0.0392  0.7236  -6.0880   0.0000   0.2934
  20.400   1.7669   0.22711   0.22470  -0.2022  0.0381  0.7253  -6.1277   0.0000   0.2940
  20.600   1.7704   0.22970   0.22733  -0.2059  0.0369  0.7276  -6.1732   0.0000   0.2948
  20.800   1.7681   0.23155   0.22920  -0.2080  0.0360  0.7279  -6.1972   0.0000   0.2952
  21.000   1.7657   0.23338   0.23104  -0.2101  0.0352  0.7283  -6.2217   0.0000   0.2957
  21.200   1.7638   0.23509   0.23281  -0.2121  0.0343  0.7288  -6.2514   0.0000   0.2960
  21.400   1.7620   0.23678   0.23454  -0.2141  0.0334  0.7292  -6.2816   0.0000   0.2964
  21.600   1.7603   0.23845   0.23625  -0.2162  0.0326  0.7298  -6.3119   0.0000   0.2967
  21.800   1.7581   0.24020   0.23801  -0.2183  0.0319  0.7303  -6.3388   0.0000   0.2971
  22.000   1.7562   0.24193   0.23975  -0.2205  0.0312  0.7310  -6.3663   0.0000   0.2975
  22.200   1.7553   0.24351   0.24140  -0.2225  0.0305  0.7317  -6.3995   0.0000   0.2978
  22.400   1.7542   0.24514   0.24307  -0.2245  0.0297  0.7324  -6.4317   0.0000   0.2980
  22.600   1.7529   0.24684   0.24480  -0.2268  0.0290  0.7331  -6.4608   0.0000   0.2984
  22.800   1.7516   0.24861   0.24659  -0.2291  0.0284  0.7338  -6.4882   0.0000   0.2989
  23.000   1.7512   0.25020   0.24817  -0.2313  0.0278  0.7345  -6.5245   0.0000   0.2991
  23.200   1.7507   0.25187   0.24990  -0.2336  0.0271  0.7353  -6.5556   0.0000   0.2995
  23.400   1.7499   0.25362   0.25170  -0.2360  0.0264  0.7362  -6.5844   0.0000   0.2999
  23.600   1.7489   0.25544   0.25356  -0.2386  0.0258  0.7371  -6.6119   0.0000   0.3004


