xflr5 v6.47

 Calculated polar for: NACA24018_theta30_Ku4.5_Kl0.5_d0.14_delta3.44

 1 1 Reynolds number fixed          Mach number fixed         

 xtrf =   1.000 (top)        1.000 (bottom)
 Mach =   0.000     Re =     1.000 e 6     Ncrit =   5.000

  alpha     CL        CD       CDp       Cm    Top Xtr Bot Xtr   Cpmin    Chinge    XCp    
 ------- -------- --------- --------- -------- ------- ------- -------- --------- ---------
 -14.400  -0.9439   0.03035   0.02517  -0.0839  0.9493  0.0306  -6.1577   0.0000   0.1384
 -14.000  -0.9186   0.02881   0.02358  -0.0831  0.9432  0.0313  -5.9313   0.0000   0.1375
 -13.800  -0.9039   0.02822   0.02297  -0.0829  0.9418  0.0317  -5.8161   0.0000   0.1365
 -13.600  -0.8961   0.02745   0.02218  -0.0814  0.9382  0.0320  -5.7249   0.0000   0.1377
 -13.400  -0.8880   0.02678   0.02148  -0.0800  0.9358  0.0324  -5.6326   0.0000   0.1389
 -13.200  -0.8747   0.02624   0.02091  -0.0793  0.9346  0.0328  -5.5236   0.0000   0.1386
 -13.000  -0.8554   0.02578   0.02043  -0.0796  0.9340  0.0332  -5.3958   0.0000   0.1364
 -12.800  -0.8500   0.02502   0.01964  -0.0774  0.9295  0.0335  -5.3135   0.0000   0.1387
 -12.600  -0.8305   0.02453   0.01913  -0.0776  0.9283  0.0339  -5.1866   0.0000   0.1366
 -12.400  -0.8094   0.02401   0.01860  -0.0781  0.9275  0.0344  -5.0556   0.0000   0.1336
 -12.200  -0.7863   0.02356   0.01815  -0.0789  0.9269  0.0351  -4.9187   0.0000   0.1299
 -12.000  -0.7738   0.02297   0.01756  -0.0778  0.9233  0.0356  -4.8195   0.0000   0.1300
 -11.800  -0.7529   0.02253   0.01712  -0.0781  0.9218  0.0363  -4.6966   0.0000   0.1269
 -11.600  -0.7295   0.02214   0.01672  -0.0788  0.9208  0.0370  -4.5677   0.0000   0.1227
 -11.400  -0.7048   0.02178   0.01634  -0.0796  0.9200  0.0376  -4.4365   0.0000   0.1177
 -11.200  -0.6793   0.02139   0.01595  -0.0806  0.9195  0.0383  -4.3049   0.0000   0.1120
 -11.000  -0.6614   0.02094   0.01551  -0.0803  0.9166  0.0390  -4.1954   0.0000   0.1094
 -10.800  -0.6403   0.02055   0.01512  -0.0805  0.9140  0.0397  -4.0778   0.0000   0.1051
 -10.200  -0.5645   0.01955   0.01411  -0.0830  0.9100  0.0424  -3.6987   0.0000   0.0834
  -9.800  -0.5443   0.01909   0.01369  -0.0793  0.8871  0.0439  -3.5332   0.0000   0.0852
  -8.200  -0.2797   0.01573   0.01028  -0.0961  0.8368  0.0563  -2.4903   0.0000  -0.1196
  -8.000  -0.2357   0.01508   0.00958  -0.1002  0.8230  0.0589  -2.3528   0.0000  -0.2044
  -7.800  -0.1941   0.01452   0.00895  -0.1039  0.8043  0.0617  -2.2228   0.0000  -0.3191
  -7.600  -0.1629   0.01422   0.00854  -0.1056  0.7769  0.0640  -2.1159   0.0000  -0.4375
  -7.400  -0.1382   0.01411   0.00832  -0.1062  0.7485  0.0666  -2.0234   0.0000  -0.5622
  -7.200  -0.1154   0.01407   0.00819  -0.1064  0.7234  0.0690  -1.9359   0.0000  -0.7219
  -7.000  -0.0922   0.01404   0.00808  -0.1067  0.7010  0.0719  -1.8528   0.0000  -0.9669
  -6.600  -0.0458   0.01403   0.00792  -0.1072  0.6572  0.0776  -1.6898   0.0000  -2.2006
  -6.400  -0.0215   0.01403   0.00786  -0.1077  0.6362  0.0815  -1.6080   0.0000  -4.9766
  -6.200   0.0030   0.01403   0.00780  -0.1083  0.6171  0.0854  -1.5269   0.0000  37.2937
  -6.000   0.0282   0.01403   0.00775  -0.1089  0.5978  0.0905  -1.4495   0.0000   4.2661
  -5.800   0.0536   0.01404   0.00770  -0.1096  0.5786  0.0956  -1.3730   0.0000   2.3699
  -5.600   0.0793   0.01405   0.00766  -0.1104  0.5606  0.1012  -1.2974   0.0000   1.6902
  -5.400   0.1057   0.01405   0.00763  -0.1113  0.5447  0.1078  -1.2253   0.0000   1.3365
  -5.200   0.1322   0.01407   0.00761  -0.1121  0.5298  0.1152  -1.1542   0.0000   1.1241
  -5.000   0.1588   0.01408   0.00760  -0.1131  0.5146  0.1244  -1.0839   0.0000   0.9818
  -4.800   0.1859   0.01411   0.00760  -0.1141  0.4988  0.1356  -1.0141   0.0000   0.8795
  -4.600   0.2140   0.01413   0.00761  -0.1154  0.4821  0.1502  -0.9440   0.0000   0.8016
  -4.400   0.2434   0.01416   0.00764  -0.1169  0.4648  0.1713  -0.8754   0.0000   0.7403
  -4.200   0.2750   0.01417   0.00769  -0.1189  0.4488  0.2017  -0.8098   0.0000   0.6904
  -4.000   0.3117   0.01418   0.00780  -0.1220  0.4334  0.2526  -0.8413   0.0000   0.6477
  -3.800   0.3593   0.01418   0.00805  -0.1274  0.4190  0.3443  -0.8813   0.0000   0.6094
  -3.600   0.3970   0.01427   0.00823  -0.1306  0.4072  0.3933  -0.9153   0.0000   0.5827
  -3.400   0.4292   0.01438   0.00835  -0.1327  0.3962  0.4194  -0.9480   0.0000   0.5619
  -3.200   0.4600   0.01449   0.00847  -0.1344  0.3860  0.4416  -0.9807   0.0000   0.5441
  -3.000   0.4935   0.01462   0.00863  -0.1366  0.3757  0.4668  -1.0155   0.0000   0.5282
  -2.800   0.5260   0.01477   0.00878  -0.1386  0.3650  0.4907  -1.0498   0.0000   0.5143
  -2.600   0.5559   0.01491   0.00891  -0.1401  0.3564  0.5057  -1.0825   0.0000   0.5023
  -2.400   0.5867   0.01507   0.00906  -0.1418  0.3476  0.5229  -1.1161   0.0000   0.4914
  -2.200   0.6174   0.01522   0.00922  -0.1434  0.3405  0.5390  -1.1498   0.0000   0.4815
  -2.000   0.6480   0.01539   0.00939  -0.1450  0.3333  0.5549  -1.1838   0.0000   0.4726
  -1.800   0.6786   0.01556   0.00956  -0.1466  0.3278  0.5706  -1.2181   0.0000   0.4645
  -1.600   0.7055   0.01571   0.00970  -0.1474  0.3228  0.5801  -1.2511   0.0000   0.4570
  -1.400   0.7314   0.01587   0.00983  -0.1481  0.3176  0.5858  -1.2835   0.0000   0.4502
  -1.200   0.7572   0.01602   0.00997  -0.1487  0.3127  0.5918  -1.3172   0.0000   0.4437
  -1.000   0.7821   0.01617   0.01010  -0.1491  0.3082  0.5977  -1.3506   0.0000   0.4377
  -0.800   0.8077   0.01633   0.01025  -0.1497  0.3033  0.6034  -1.3848   0.0000   0.4321
  -0.600   0.8330   0.01651   0.01040  -0.1502  0.2985  0.6095  -1.4190   0.0000   0.4268
  -0.400   0.8574   0.01666   0.01055  -0.1506  0.2949  0.6149  -1.4526   0.0000   0.4217
  -0.200   0.8821   0.01682   0.01070  -0.1510  0.2908  0.6198  -1.4866   0.0000   0.4169
   0.000   0.9069   0.01700   0.01087  -0.1514  0.2865  0.6253  -1.5225   0.0000   0.4124
   0.200   0.9310   0.01719   0.01103  -0.1517  0.2826  0.6309  -1.5579   0.0000   0.4081
   0.400   0.9551   0.01736   0.01120  -0.1520  0.2799  0.6361  -1.5935   0.0000   0.4040
   0.600   0.9799   0.01754   0.01140  -0.1524  0.2765  0.6419  -1.6300   0.0000   0.4001
   0.800   1.0039   0.01774   0.01158  -0.1526  0.2727  0.6478  -1.6660   0.0000   0.3964
   1.000   1.0273   0.01794   0.01176  -0.1528  0.2688  0.6530  -1.7018   0.0000   0.3928
   1.200   1.0510   0.01814   0.01197  -0.1530  0.2657  0.6582  -1.7395   0.0000   0.3894
   1.400   1.0746   0.01833   0.01217  -0.1532  0.2632  0.6635  -1.7782   0.0000   0.3861
   1.600   1.0975   0.01853   0.01236  -0.1532  0.2599  0.6682  -1.8173   0.0000   0.3829
   1.800   1.1201   0.01874   0.01256  -0.1532  0.2563  0.6724  -1.8562   0.0000   0.3798
   2.000   1.1424   0.01897   0.01278  -0.1532  0.2526  0.6774  -1.8951   0.0000   0.3768
   2.200   1.1651   0.01918   0.01300  -0.1532  0.2499  0.6826  -1.9346   0.0000   0.3739
   2.400   1.1879   0.01939   0.01321  -0.1532  0.2470  0.6875  -1.9743   0.0000   0.3712
   2.600   1.2095   0.01961   0.01345  -0.1530  0.2437  0.6921  -2.0142   0.0000   0.3684
   2.800   1.2309   0.01985   0.01368  -0.1528  0.2406  0.6968  -2.0548   0.0000   0.3658
   3.000   1.2524   0.02011   0.01392  -0.1526  0.2376  0.7013  -2.0956   0.0000   0.3632
   3.200   1.2746   0.02034   0.01417  -0.1525  0.2352  0.7054  -2.1373   0.0000   0.3607
   3.400   1.2948   0.02056   0.01441  -0.1521  0.2325  0.7094  -2.1778   0.0000   0.3582
   3.600   1.3152   0.02080   0.01465  -0.1517  0.2295  0.7135  -2.2199   0.0000   0.3558
   3.800   1.3357   0.02107   0.01491  -0.1513  0.2264  0.7173  -2.2623   0.0000   0.3535
   4.000   1.3563   0.02136   0.01520  -0.1510  0.2233  0.7210  -2.3057   0.0000   0.3512
   4.200   1.3767   0.02161   0.01546  -0.1506  0.2209  0.7245  -2.3504   0.0000   0.3490
   4.400   1.3954   0.02185   0.01572  -0.1499  0.2184  0.7282  -2.3952   0.0000   0.3467
   4.600   1.4147   0.02211   0.01600  -0.1493  0.2154  0.7323  -2.4408   0.0000   0.3446
   4.800   1.4343   0.02242   0.01630  -0.1488  0.2123  0.7361  -2.4871   0.0000   0.3425
   5.000   1.4541   0.02278   0.01664  -0.1483  0.2090  0.7394  -2.5339   0.0000   0.3404
   5.200   1.4722   0.02305   0.01695  -0.1475  0.2069  0.7425  -2.5788   0.0000   0.3383
   5.400   1.4888   0.02333   0.01725  -0.1465  0.2044  0.7457  -2.6220   0.0000   0.3362
   5.600   1.5059   0.02365   0.01758  -0.1455  0.2016  0.7489  -2.6662   0.0000   0.3341
   5.800   1.5237   0.02401   0.01794  -0.1447  0.1987  0.7522  -2.7162   0.0000   0.3322
   6.000   1.5421   0.02440   0.01833  -0.1441  0.1959  0.7553  -2.7684   0.0000   0.3303
   6.200   1.5624   0.02477   0.01871  -0.1437  0.1936  0.7580  -2.8237   0.0000   0.3286
   6.400   1.5769   0.02506   0.01903  -0.1423  0.1910  0.7605  -2.8709   0.0000   0.3265
   6.600   1.5915   0.02540   0.01938  -0.1410  0.1877  0.7630  -2.9185   0.0000   0.3245
   6.800   1.6062   0.02580   0.01978  -0.1397  0.1843  0.7657  -2.9666   0.0000   0.3226
   7.000   1.6219   0.02621   0.02021  -0.1386  0.1816  0.7685  -3.0162   0.0000   0.3207
   7.200   1.6390   0.02663   0.02064  -0.1377  0.1793  0.7711  -3.0682   0.0000   0.3190
   7.400   1.6571   0.02709   0.02112  -0.1371  0.1768  0.7737  -3.1283   0.0000   0.3173
   7.600   1.6733   0.02757   0.02161  -0.1361  0.1741  0.7759  -3.1882   0.0000   0.3156
   7.800   1.6838   0.02801   0.02206  -0.1341  0.1712  0.7780  -3.2387   0.0000   0.3136
   8.000   1.6958   0.02842   0.02250  -0.1324  0.1686  0.7800  -3.2919   0.0000   0.3117
   8.200   1.7085   0.02886   0.02296  -0.1309  0.1655  0.7823  -3.3468   0.0000   0.3098
   8.400   1.7210   0.02940   0.02351  -0.1294  0.1622  0.7845  -3.4049   0.0000   0.3080
   8.600   1.7341   0.03003   0.02414  -0.1280  0.1590  0.7867  -3.4677   0.0000   0.3063
   8.800   1.7495   0.03061   0.02475  -0.1271  0.1565  0.7889  -3.5352   0.0000   0.3048
   9.000   1.7660   0.03124   0.02538  -0.1263  0.1534  0.7909  -3.6051   0.0000   0.3033
   9.200   1.7793   0.03191   0.02606  -0.1251  0.1500  0.7927  -3.6694   0.0000   0.3017
   9.400   1.7851   0.03256   0.02673  -0.1226  0.1470  0.7943  -3.7241   0.0000   0.2997
   9.600   1.7933   0.03313   0.02733  -0.1205  0.1445  0.7958  -3.7852   0.0000   0.2978
   9.800   1.8019   0.03375   0.02798  -0.1185  0.1415  0.7974  -3.8475   0.0000   0.2960
  10.000   1.8097   0.03451   0.02876  -0.1165  0.1385  0.7991  -3.9085   0.0000   0.2943
  10.200   1.8181   0.03536   0.02962  -0.1147  0.1357  0.8008  -3.9718   0.0000   0.2926
  10.400   1.8292   0.03613   0.03043  -0.1133  0.1334  0.8025  -4.0455   0.0000   0.2911
  10.600   1.8397   0.03704   0.03136  -0.1120  0.1302  0.8043  -4.1183   0.0000   0.2896
  10.800   1.8492   0.03813   0.03245  -0.1106  0.1265  0.8060  -4.1893   0.0000   0.2881
  11.000   1.8603   0.03925   0.03358  -0.1096  0.1233  0.8076  -4.2645   0.0000   0.2868
  11.200   1.8703   0.04036   0.03472  -0.1084  0.1202  0.8090  -4.3396   0.0000   0.2854
  11.400   1.8722   0.04139   0.03579  -0.1060  0.1176  0.8101  -4.3949   0.0000   0.2836
  11.600   1.8733   0.04257   0.03700  -0.1036  0.1150  0.8112  -4.4481   0.0000   0.2819
  11.800   1.8766   0.04363   0.03810  -0.1015  0.1130  0.8123  -4.5068   0.0000   0.2803
  12.000   1.8795   0.04484   0.03935  -0.0996  0.1105  0.8134  -4.5649   0.0000   0.2787
  12.200   1.8814   0.04626   0.04080  -0.0977  0.1075  0.8146  -4.6219   0.0000   0.2772
  12.400   1.8830   0.04781   0.04238  -0.0960  0.1049  0.8157  -4.6797   0.0000   0.2758
  12.600   1.8865   0.04929   0.04391  -0.0946  0.1025  0.8168  -4.7438   0.0000   0.2745
  12.800   1.8888   0.05098   0.04563  -0.0932  0.0998  0.8179  -4.8053   0.0000   0.2733
  13.000   1.8896   0.05292   0.04761  -0.0920  0.0971  0.8191  -4.8639   0.0000   0.2721
  13.200   1.8929   0.05476   0.04949  -0.0911  0.0949  0.8203  -4.9298   0.0000   0.2710
  13.400   1.8958   0.05678   0.05156  -0.0903  0.0924  0.8216  -4.9947   0.0000   0.2701
  13.600   1.8967   0.05916   0.05397  -0.0898  0.0897  0.8228  -5.0534   0.0000   0.2692
  13.800   1.8981   0.06168   0.05653  -0.0895  0.0874  0.8239  -5.1132   0.0000   0.2685
  14.000   1.9000   0.06411   0.05902  -0.0893  0.0851  0.8248  -5.1747   0.0000   0.2678
  14.200   1.8941   0.06655   0.06152  -0.0882  0.0830  0.8254  -5.2120   0.0000   0.2669
  14.400   1.8866   0.06927   0.06429  -0.0872  0.0811  0.8259  -5.2433   0.0000   0.2660
  14.600   1.8799   0.07192   0.06701  -0.0865  0.0795  0.8265  -5.2767   0.0000   0.2653
  14.800   1.8736   0.07461   0.06977  -0.0859  0.0777  0.8270  -5.3107   0.0000   0.2646
  15.000   1.8653   0.07761   0.07284  -0.0855  0.0758  0.8276  -5.3376   0.0000   0.2640
  15.200   1.8547   0.08101   0.07630  -0.0854  0.0740  0.8281  -5.3556   0.0000   0.2636
  15.400   1.8447   0.08440   0.07977  -0.0855  0.0724  0.8286  -5.3743   0.0000   0.2633
  15.600   1.8358   0.08771   0.08315  -0.0857  0.0709  0.8291  -5.3972   0.0000   0.2631
  15.800   1.8256   0.09126   0.08678  -0.0861  0.0694  0.8295  -5.4148   0.0000   0.2630
  16.000   1.8138   0.09511   0.09070  -0.0869  0.0679  0.8300  -5.4251   0.0000   0.2631
  16.200   1.8009   0.09917   0.09483  -0.0879  0.0665  0.8304  -5.4294   0.0000   0.2634
  16.400   1.7907   0.10286   0.09860  -0.0888  0.0653  0.8308  -5.4430   0.0000   0.2636
  16.600   1.7805   0.10662   0.10243  -0.0900  0.0640  0.8314  -5.4546   0.0000   0.2640
  16.800   1.7691   0.11056   0.10646  -0.0914  0.0627  0.8319  -5.4607   0.0000   0.2644
  17.000   1.7568   0.11472   0.11069  -0.0931  0.0614  0.8324  -5.4610   0.0000   0.2651
  17.200   1.7437   0.11905   0.11509  -0.0950  0.0602  0.8330  -5.4562   0.0000   0.2660
  17.400   1.7340   0.12295   0.11906  -0.0969  0.0591  0.8336  -5.4635   0.0000   0.2667
  17.600   1.7251   0.12683   0.12301  -0.0989  0.0578  0.8342  -5.4720   0.0000   0.2676
  17.800   1.7154   0.13089   0.12715  -0.1012  0.0565  0.8349  -5.4758   0.0000   0.2686
  18.000   1.7054   0.13512   0.13143  -0.1038  0.0551  0.8355  -5.4757   0.0000   0.2698
  18.200   1.6965   0.13925   0.13562  -0.1065  0.0539  0.8362  -5.4788   0.0000   0.2710
  18.400   1.6908   0.14303   0.13946  -0.1091  0.0526  0.8369  -5.4938   0.0000   0.2721
  18.600   1.6847   0.14697   0.14346  -0.1119  0.0513  0.8376  -5.5068   0.0000   0.2733
  18.800   1.6796   0.15087   0.14741  -0.1149  0.0500  0.8384  -5.5228   0.0000   0.2746
  19.000   1.6728   0.15521   0.15179  -0.1185  0.0488  0.8392  -5.5297   0.0000   0.2763
  19.200   1.6716   0.15876   0.15540  -0.1215  0.0478  0.8400  -5.5643   0.0000   0.2775
  19.400   1.6647   0.16181   0.15850  -0.1234  0.0468  0.8404  -5.5776   0.0000   0.2783
  19.600   1.6579   0.16483   0.16157  -0.1253  0.0458  0.8408  -5.5906   0.0000   0.2791
  19.800   1.6497   0.16813   0.16491  -0.1276  0.0448  0.8412  -5.5943   0.0000   0.2801
  20.000   1.6421   0.17136   0.16818  -0.1298  0.0438  0.8416  -5.6001   0.0000   0.2812
  20.200   1.6374   0.17413   0.17100  -0.1317  0.0430  0.8420  -5.6200   0.0000   0.2819
  20.400   1.6339   0.17669   0.17360  -0.1336  0.0420  0.8424  -5.6463   0.0000   0.2825
  20.600   1.6280   0.17976   0.17671  -0.1359  0.0410  0.8427  -5.6570   0.0000   0.2836
  20.800   1.6228   0.18269   0.17968  -0.1381  0.0400  0.8431  -5.6711   0.0000   0.2846
  21.000   1.6180   0.18558   0.18260  -0.1404  0.0391  0.8435  -5.6861   0.0000   0.2855
  21.200   1.6148   0.18823   0.18530  -0.1425  0.0382  0.8439  -5.7092   0.0000   0.2863
  21.400   1.6128   0.19067   0.18777  -0.1445  0.0373  0.8443  -5.7389   0.0000   0.2870
  21.600   1.6089   0.19344   0.19058  -0.1468  0.0364  0.8448  -5.7559   0.0000   0.2879
  21.800   1.6045   0.19633   0.19350  -0.1493  0.0356  0.8453  -5.7683   0.0000   0.2890
  22.000   1.6022   0.19883   0.19602  -0.1514  0.0348  0.8458  -5.7939   0.0000   0.2898
  22.200   1.6003   0.20134   0.19857  -0.1537  0.0341  0.8464  -5.8198   0.0000   0.2906
  22.400   1.5983   0.20393   0.20120  -0.1560  0.0332  0.8470  -5.8439   0.0000   0.2914
  22.600   1.5970   0.20648   0.20378  -0.1584  0.0324  0.8476  -5.8709   0.0000   0.2923
  22.800   1.5939   0.20947   0.20679  -0.1614  0.0316  0.8482  -5.8838   0.0000   0.2936
  23.000   1.5934   0.21207   0.20943  -0.1640  0.0309  0.8488  -5.9121   0.0000   0.2945
  23.200   1.5950   0.21436   0.21176  -0.1664  0.0302  0.8495  -5.9533   0.0000   0.2952
  23.400   1.5961   0.21687   0.21429  -0.1691  0.0295  0.8502  -5.9895   0.0000   0.2960
  23.600   1.5952   0.21992   0.21737  -0.1724  0.0287  0.8510  -6.0082   0.0000   0.2974
  23.800   1.5962   0.22283   0.22030  -0.1758  0.0280  0.8519  -6.0369   0.0000   0.2986
  24.000   1.6007   0.22539   0.22290  -0.1790  0.0273  0.8530  -6.0870   0.0000   0.2995
  24.200   1.6044   0.22855   0.22609  -0.1830  0.0265  0.8541  -6.1259   0.0000   0.3009
  24.400   1.6041   0.23085   0.22842  -0.1855  0.0259  0.8545  -6.1564   0.0000   0.3017
  24.600   1.6023   0.23294   0.23053  -0.1875  0.0253  0.8549  -6.1811   0.0000   0.3023
  24.800   1.5987   0.23547   0.23308  -0.1900  0.0247  0.8551  -6.1889   0.0000   0.3034
  25.000   1.5974   0.23754   0.23519  -0.1921  0.0243  0.8554  -6.2145   0.0000   0.3040


