xflr5 v6.47

 Calculated polar for: NACA24018_theta30_Ku4.5_Kl0.5_d0.21_delta5.84

 1 1 Reynolds number fixed          Mach number fixed         

 xtrf =   1.000 (top)        1.000 (bottom)
 Mach =   0.000     Re =     2.200 e 6     Ncrit =   5.000

  alpha     CL        CD       CDp       Cm    Top Xtr Bot Xtr   Cpmin    Chinge    XCp    
 ------- -------- --------- --------- -------- ------- ------- -------- --------- ---------
 -15.000  -0.7762   0.02760   0.02323  -0.1155  0.8827  0.0294  -5.7641   0.0000   0.0755
 -14.800  -0.7536   0.02734   0.02298  -0.1163  0.8827  0.0298  -5.6216   0.0000   0.0699
 -14.600  -0.7306   0.02713   0.02277  -0.1172  0.8827  0.0303  -5.4783   0.0000   0.0638
 -14.200  -0.7115   0.02725   0.02290  -0.1145  0.8806  0.0310  -5.2852   0.0000   0.0637
 -14.000  -0.6877   0.02715   0.02279  -0.1154  0.8805  0.0314  -5.1422   0.0000   0.0567
 -13.800  -0.6635   0.02707   0.02272  -0.1163  0.8805  0.0318  -5.0013   0.0000   0.0491
 -13.600  -0.6428   0.02704   0.02268  -0.1166  0.8799  0.0322  -4.8762   0.0000   0.0429
 -13.400  -0.6176   0.02686   0.02251  -0.1176  0.8787  0.0326  -4.7389   0.0000   0.0337
 -13.200  -0.5860   0.02656   0.02222  -0.1196  0.8776  0.0334  -4.5835   0.0000   0.0195
 -13.000  -0.5513   0.02619   0.02187  -0.1221  0.8768  0.0342  -4.4207   0.0000   0.0014
 -12.800  -0.5161   0.02584   0.02152  -0.1247  0.8762  0.0350  -4.2584   0.0000  -0.0194
 -12.600  -0.4799   0.02546   0.02114  -0.1273  0.8757  0.0358  -4.0955   0.0000  -0.0443
 -12.400  -0.4440   0.02511   0.02080  -0.1300  0.8754  0.0366  -3.9362   0.0000  -0.0729
 -12.200  -0.4086   0.02480   0.02051  -0.1326  0.8751  0.0376  -3.7806   0.0000  -0.1062
 -12.000  -0.3734   0.02449   0.02021  -0.1351  0.8749  0.0386  -3.6279   0.0000  -0.1452
 -11.800  -0.3356   0.02406   0.01978  -0.1380  0.8745  0.0395  -3.4705   0.0000  -0.1971
  -9.000   0.0754   0.02254   0.01781  -0.1582  0.6880  0.0596  -1.8759   0.0000   2.4445
  -8.800   0.0953   0.02288   0.01802  -0.1580  0.6535  0.0618  -1.7990   0.0000   1.9813
  -8.600   0.1180   0.02311   0.01815  -0.1582  0.6258  0.0637  -1.7179   0.0000   1.6474
  -8.400   0.1431   0.02331   0.01827  -0.1589  0.5991  0.0665  -1.6338   0.0000   1.4057
  -8.200   0.1682   0.02347   0.01835  -0.1596  0.5759  0.0692  -1.5507   0.0000   1.2351
  -8.000   0.1952   0.02363   0.01845  -0.1606  0.5567  0.0723  -1.4657   0.0000   1.1027
  -7.800   0.2217   0.02377   0.01853  -0.1615  0.5396  0.0752  -1.3829   0.0000   1.0036
  -7.600   0.2492   0.02391   0.01863  -0.1625  0.5231  0.0788  -1.2997   0.0000   0.9237
  -7.400   0.2761   0.02404   0.01870  -0.1635  0.5062  0.0825  -1.2200   0.0000   0.8605
  -7.200   0.3043   0.02416   0.01877  -0.1647  0.4883  0.0872  -1.1445   0.0000   0.8069
  -7.000   0.3322   0.02428   0.01883  -0.1658  0.4703  0.0921  -1.0722   0.0000   0.7628
  -6.800   0.3598   0.02441   0.01892  -0.1669  0.4538  0.0977  -1.0014   0.0000   0.7256
  -6.600   0.3882   0.02459   0.01907  -0.1681  0.4396  0.1044  -0.9307   0.0000   0.6933
  -6.400   0.4165   0.02476   0.01921  -0.1693  0.4248  0.1118  -0.8635   0.0000   0.6654
  -6.200   0.4443   0.02494   0.01934  -0.1703  0.4105  0.1190  -0.8384   0.0000   0.6413
  -6.000   0.4727   0.02513   0.01951  -0.1715  0.3981  0.1283  -0.8666   0.0000   0.6197
  -5.800   0.5022   0.02534   0.01972  -0.1729  0.3878  0.1399  -0.8958   0.0000   0.6002
  -5.600   0.5317   0.02556   0.01991  -0.1743  0.3751  0.1530  -0.9251   0.0000   0.5829
  -5.400   0.5639   0.02583   0.02020  -0.1763  0.3645  0.1722  -0.9575   0.0000   0.5669
  -5.200   0.5969   0.02612   0.02051  -0.1783  0.3550  0.1962  -0.9909   0.0000   0.5523
  -5.000   0.6385   0.02659   0.02106  -0.1821  0.3461  0.2421  -1.0308   0.0000   0.5380
  -4.800   0.6867   0.02720   0.02179  -0.1871  0.3359  0.3051  -1.0775   0.0000   0.5246
  -4.600   0.7290   0.02774   0.02240  -0.1909  0.3275  0.3551  -1.1203   0.0000   0.5135
  -4.400   0.7647   0.02815   0.02285  -0.1934  0.3202  0.3848  -1.1586   0.0000   0.5041
  -4.200   0.7960   0.02850   0.02322  -0.1951  0.3162  0.4045  -1.1939   0.0000   0.4957
  -4.000   0.8253   0.02880   0.02353  -0.1963  0.3112  0.4194  -1.2278   0.0000   0.4881
  -3.800   0.8553   0.02912   0.02384  -0.1977  0.3051  0.4364  -1.2625   0.0000   0.4810
  -3.600   0.8853   0.02945   0.02419  -0.1991  0.3007  0.4535  -1.2974   0.0000   0.4744
  -3.400   0.9152   0.02979   0.02453  -0.2005  0.2956  0.4697  -1.3325   0.0000   0.4681
  -3.200   0.9472   0.03017   0.02491  -0.2022  0.2891  0.4890  -1.3716   0.0000   0.4622
  -3.000   0.9778   0.03054   0.02528  -0.2037  0.2847  0.5035  -1.4108   0.0000   0.4567
  -2.800   1.0020   0.03076   0.02550  -0.2040  0.2821  0.5104  -1.4447   0.0000   0.4516
  -2.600   1.0289   0.03106   0.02579  -0.2048  0.2787  0.5175  -1.4812   0.0000   0.4467
  -2.400   1.0532   0.03129   0.02601  -0.2051  0.2749  0.5227  -1.5156   0.0000   0.4421
  -2.200   1.0761   0.03149   0.02618  -0.2051  0.2706  0.5267  -1.5490   0.0000   0.4376
  -2.000   1.0983   0.03169   0.02637  -0.2050  0.2678  0.5297  -1.5820   0.0000   0.4334
  -1.800   1.1234   0.03197   0.02664  -0.2054  0.2645  0.5345  -1.6177   0.0000   0.4293
  -1.600   1.1478   0.03223   0.02688  -0.2058  0.2601  0.5396  -1.6550   0.0000   0.4254
  -1.400   1.1709   0.03246   0.02708  -0.2058  0.2555  0.5444  -1.6922   0.0000   0.4216
  -1.200   1.1931   0.03268   0.02729  -0.2057  0.2524  0.5481  -1.7287   0.0000   0.4179
  -1.000   1.2163   0.03293   0.02754  -0.2058  0.2505  0.5519  -1.7665   0.0000   0.4144
  -0.800   1.2406   0.03321   0.02782  -0.2061  0.2480  0.5565  -1.8056   0.0000   0.4110
  -0.600   1.2638   0.03347   0.02808  -0.2061  0.2451  0.5607  -1.8437   0.0000   0.4078
  -0.400   1.2860   0.03371   0.02830  -0.2060  0.2418  0.5647  -1.8811   0.0000   0.4046
  -0.200   1.3075   0.03395   0.02851  -0.2058  0.2379  0.5683  -1.9180   0.0000   0.4015
   0.000   1.3307   0.03423   0.02879  -0.2059  0.2358  0.5726  -1.9569   0.0000   0.3985
   0.200   1.3546   0.03453   0.02909  -0.2061  0.2328  0.5775  -1.9965   0.0000   0.3956
   0.400   1.3767   0.03480   0.02935  -0.2060  0.2294  0.5817  -2.0356   0.0000   0.3928
   0.600   1.3978   0.03505   0.02957  -0.2057  0.2254  0.5853  -2.0764   0.0000   0.3900
   0.800   1.4185   0.03529   0.02980  -0.2053  0.2223  0.5882  -2.1182   0.0000   0.3873
   1.000   1.4405   0.03557   0.03009  -0.2051  0.2202  0.5920  -2.1617   0.0000   0.3847
   1.200   1.4636   0.03589   0.03042  -0.2052  0.2176  0.5969  -2.2067   0.0000   0.3822
   1.400   1.4853   0.03619   0.03071  -0.2050  0.2148  0.6013  -2.2504   0.0000   0.3797
   1.600   1.5059   0.03647   0.03097  -0.2046  0.2117  0.6049  -2.2931   0.0000   0.3773
   1.800   1.5260   0.03674   0.03123  -0.2041  0.2085  0.6080  -2.3352   0.0000   0.3749
   2.000   1.5469   0.03703   0.03152  -0.2038  0.2068  0.6113  -2.3787   0.0000   0.3725
   2.200   1.5692   0.03737   0.03187  -0.2037  0.2040  0.6159  -2.4241   0.0000   0.3703
   2.400   1.5901   0.03770   0.03219  -0.2034  0.2006  0.6199  -2.4683   0.0000   0.3681
   2.600   1.6099   0.03802   0.03249  -0.2028  0.1967  0.6233  -2.5128   0.0000   0.3659
   2.800   1.6295   0.03832   0.03279  -0.2023  0.1940  0.6262  -2.5578   0.0000   0.3637
   3.000   1.6489   0.03861   0.03308  -0.2017  0.1917  0.6288  -2.6039   0.0000   0.3616
   3.200   1.6690   0.03895   0.03341  -0.2012  0.1885  0.6321  -2.6530   0.0000   0.3595
   3.400   1.6893   0.03934   0.03379  -0.2008  0.1850  0.6362  -2.7036   0.0000   0.3575
   3.600   1.7088   0.03970   0.03414  -0.2002  0.1817  0.6399  -2.7544   0.0000   0.3555
   3.800   1.7282   0.04003   0.03449  -0.1996  0.1797  0.6434  -2.8052   0.0000   0.3535
   4.000   1.7468   0.04038   0.03483  -0.1989  0.1768  0.6465  -2.8582   0.0000   0.3515
   4.200   1.7645   0.04074   0.03518  -0.1981  0.1735  0.6489  -2.9111   0.0000   0.3496
   4.400   1.7826   0.04114   0.03556  -0.1973  0.1699  0.6517  -2.9647   0.0000   0.3477
   4.600   1.8016   0.04154   0.03597  -0.1966  0.1679  0.6549  -3.0201   0.0000   0.3458
   4.800   1.8193   0.04197   0.03641  -0.1958  0.1647  0.6578  -3.0739   0.0000   0.3439
   5.000   1.8357   0.04247   0.03689  -0.1947  0.1603  0.6609  -3.1291   0.0000   0.3421
   5.200   1.8522   0.04295   0.03736  -0.1937  0.1569  0.6639  -3.1875   0.0000   0.3402
   5.400   1.8689   0.04339   0.03781  -0.1927  0.1545  0.6665  -3.2467   0.0000   0.3384
   5.600   1.8849   0.04386   0.03828  -0.1916  0.1515  0.6686  -3.3050   0.0000   0.3366
   5.800   1.9001   0.04437   0.03877  -0.1904  0.1478  0.6705  -3.3623   0.0000   0.3348
   6.000   1.9167   0.04487   0.03927  -0.1894  0.1450  0.6735  -3.4223   0.0000   0.3330
   6.200   1.9326   0.04540   0.03980  -0.1883  0.1411  0.6765  -3.4879   0.0000   0.3313
   6.400   1.9469   0.04600   0.04038  -0.1870  0.1367  0.6793  -3.5531   0.0000   0.3295
   6.600   1.9624   0.04651   0.04090  -0.1859  0.1342  0.6818  -3.6210   0.0000   0.3278
   6.800   1.9774   0.04705   0.04145  -0.1846  0.1315  0.6842  -3.6894   0.0000   0.3261
   7.000   1.9905   0.04773   0.04212  -0.1831  0.1281  0.6863  -3.7558   0.0000   0.3244
   7.200   2.0035   0.04842   0.04281  -0.1817  0.1251  0.6882  -3.8263   0.0000   0.3226
   7.400   2.0167   0.04909   0.04348  -0.1802  0.1218  0.6898  -3.8986   0.0000   0.3210
   7.600   2.0280   0.04987   0.04425  -0.1785  0.1174  0.6922  -3.9746   0.0000   0.3192
   7.800   2.0406   0.05057   0.04495  -0.1770  0.1141  0.6944  -4.0541   0.0000   0.3176
   8.000   2.0518   0.05135   0.04573  -0.1754  0.1100  0.6964  -4.1308   0.0000   0.3159
   8.200   2.0625   0.05216   0.04654  -0.1736  0.1063  0.6983  -4.2070   0.0000   0.3142
   8.400   2.0722   0.05308   0.04746  -0.1718  0.1027  0.7003  -4.2814   0.0000   0.3125
   8.600   2.0810   0.05408   0.04845  -0.1699  0.0992  0.7024  -4.3541   0.0000   0.3108
   8.800   2.0925   0.05489   0.04928  -0.1683  0.0970  0.7045  -4.4335   0.0000   0.3092
   9.000   2.1028   0.05581   0.05020  -0.1666  0.0941  0.7062  -4.5106   0.0000   0.3076
   9.200   2.1109   0.05690   0.05130  -0.1647  0.0911  0.7077  -4.5832   0.0000   0.3059
   9.400   2.1200   0.05795   0.05236  -0.1629  0.0888  0.7089  -4.6583   0.0000   0.3043
   9.600   2.1272   0.05905   0.05348  -0.1610  0.0858  0.7108  -4.7326   0.0000   0.3027
   9.800   2.1344   0.06017   0.05461  -0.1590  0.0830  0.7128  -4.8113   0.0000   0.3011
  10.000   2.1400   0.06143   0.05589  -0.1569  0.0801  0.7146  -4.8865   0.0000   0.2995
  10.200   2.1439   0.06284   0.05730  -0.1547  0.0770  0.7162  -4.9574   0.0000   0.2978
  10.400   2.1502   0.06407   0.05855  -0.1528  0.0745  0.7178  -5.0361   0.0000   0.2963
  10.600   2.1531   0.06563   0.06013  -0.1506  0.0717  0.7192  -5.1072   0.0000   0.2947
  10.800   2.1579   0.06705   0.06157  -0.1487  0.0694  0.7207  -5.1839   0.0000   0.2932
  11.000   2.1613   0.06864   0.06319  -0.1468  0.0671  0.7222  -5.2572   0.0000   0.2917
  11.200   2.1633   0.07041   0.06497  -0.1448  0.0647  0.7237  -5.3263   0.0000   0.2902
  11.400   2.1672   0.07203   0.06663  -0.1431  0.0629  0.7251  -5.4011   0.0000   0.2888
  11.600   2.1693   0.07388   0.06851  -0.1413  0.0609  0.7264  -5.4709   0.0000   0.2874
  11.800   2.1693   0.07597   0.07062  -0.1395  0.0588  0.7274  -5.5344   0.0000   0.2861
  12.000   2.1717   0.07783   0.07252  -0.1380  0.0571  0.7282  -5.6053   0.0000   0.2848
  12.200   2.1711   0.07989   0.07461  -0.1364  0.0551  0.7294  -5.6664   0.0000   0.2835
  12.400   2.1687   0.08215   0.07691  -0.1347  0.0534  0.7306  -5.7239   0.0000   0.2823
  12.600   2.1680   0.08427   0.07908  -0.1333  0.0519  0.7319  -5.7867   0.0000   0.2811
  12.800   2.1662   0.08652   0.08138  -0.1320  0.0504  0.7332  -5.8459   0.0000   0.2800
  13.000   2.1631   0.08896   0.08386  -0.1308  0.0490  0.7345  -5.9003   0.0000   0.2789
  13.200   2.1616   0.09124   0.08619  -0.1298  0.0479  0.7358  -5.9596   0.0000   0.2780
  13.400   2.1590   0.09369   0.08870  -0.1290  0.0467  0.7371  -6.0149   0.0000   0.2770
  13.600   2.1550   0.09634   0.09140  -0.1282  0.0454  0.7383  -6.0650   0.0000   0.2762
  13.800   2.1499   0.09917   0.09427  -0.1277  0.0442  0.7393  -6.1102   0.0000   0.2755
  14.000   2.1477   0.10164   0.09680  -0.1273  0.0431  0.7404  -6.1655   0.0000   0.2748
  14.200   2.1434   0.10440   0.09962  -0.1271  0.0419  0.7413  -6.2158   0.0000   0.2742
  14.400   2.1371   0.10747   0.10274  -0.1271  0.0407  0.7422  -6.2585   0.0000   0.2737
  14.600   2.1308   0.11055   0.10587  -0.1273  0.0397  0.7431  -6.3008   0.0000   0.2733
  14.800   2.1261   0.11347   0.10885  -0.1277  0.0387  0.7440  -6.3481   0.0000   0.2730
  15.000   2.1208   0.11649   0.11193  -0.1282  0.0378  0.7449  -6.3920   0.0000   0.2727
  15.200   2.1142   0.11969   0.11519  -0.1289  0.0369  0.7457  -6.4298   0.0000   0.2726
  15.400   2.1067   0.12303   0.11858  -0.1299  0.0360  0.7464  -6.4630   0.0000   0.2726
  15.600   2.1015   0.12607   0.12169  -0.1308  0.0353  0.7470  -6.5045   0.0000   0.2725
  15.800   2.0938   0.12927   0.12496  -0.1319  0.0346  0.7480  -6.5346   0.0000   0.2725
  16.000   2.0852   0.13261   0.12837  -0.1331  0.0338  0.7490  -6.5596   0.0000   0.2727
  16.200   2.0756   0.13611   0.13194  -0.1347  0.0331  0.7499  -6.5790   0.0000   0.2730
  16.400   2.0655   0.13968   0.13557  -0.1363  0.0324  0.7506  -6.5949   0.0000   0.2734
  16.600   2.0585   0.14282   0.13877  -0.1378  0.0319  0.7515  -6.6231   0.0000   0.2736
  16.800   2.0505   0.14609   0.14211  -0.1395  0.0313  0.7523  -6.6464   0.0000   0.2740
  17.000   2.0412   0.14960   0.14569  -0.1415  0.0308  0.7531  -6.6618   0.0000   0.2745
  17.200   2.0317   0.15315   0.14931  -0.1437  0.0302  0.7538  -6.6745   0.0000   0.2752
  17.400   2.0227   0.15662   0.15284  -0.1458  0.0296  0.7546  -6.6885   0.0000   0.2758
  17.600   2.0133   0.16016   0.15644  -0.1482  0.0291  0.7555  -6.6993   0.0000   0.2765
  17.800   2.0046   0.16362   0.15997  -0.1505  0.0286  0.7564  -6.7122   0.0000   0.2773
  18.000   1.9983   0.16671   0.16312  -0.1527  0.0281  0.7574  -6.7358   0.0000   0.2778
  18.200   1.9906   0.17004   0.16651  -0.1551  0.0276  0.7584  -6.7511   0.0000   0.2785
  18.400   1.9820   0.17354   0.17007  -0.1578  0.0270  0.7593  -6.7601   0.0000   0.2794
  18.600   1.9753   0.17673   0.17331  -0.1602  0.0264  0.7602  -6.7781   0.0000   0.2802
  18.800   1.9657   0.18043   0.17706  -0.1632  0.0259  0.7610  -6.7785   0.0000   0.2813
  19.000   1.9620   0.18316   0.17983  -0.1654  0.0254  0.7618  -6.8104   0.0000   0.2818
  19.200   1.9546   0.18649   0.18323  -0.1682  0.0250  0.7625  -6.8207   0.0000   0.2828
  19.400   1.9508   0.18923   0.18601  -0.1705  0.0245  0.7632  -6.8503   0.0000   0.2833
  19.600   1.9435   0.19255   0.18938  -0.1735  0.0240  0.7638  -6.8615   0.0000   0.2843
  19.800   1.9390   0.19540   0.19226  -0.1760  0.0235  0.7644  -6.8894   0.0000   0.2850
  20.000   1.9322   0.19862   0.19554  -0.1789  0.0230  0.7649  -6.9023   0.0000   0.2861
  20.200   1.9278   0.20126   0.19822  -0.1813  0.0226  0.7659  -6.9300   0.0000   0.2867
  20.400   1.9250   0.20357   0.20057  -0.1833  0.0222  0.7669  -6.9678   0.0000   0.2871
  20.600   1.9181   0.20661   0.20367  -0.1862  0.0219  0.7678  -6.9781   0.0000   0.2881
  20.800   1.9149   0.20899   0.20608  -0.1884  0.0214  0.7688  -7.0117   0.0000   0.2886
  21.000   1.9102   0.21163   0.20877  -0.1909  0.0210  0.7696  -7.0347   0.0000   0.2893
  21.200   1.9042   0.21453   0.21171  -0.1937  0.0206  0.7704  -7.0471   0.0000   0.2903
  21.400   1.9010   0.21694   0.21415  -0.1961  0.0201  0.7711  -7.0776   0.0000   0.2909
  21.600   1.8964   0.21959   0.21685  -0.1987  0.0198  0.7719  -7.0982   0.0000   0.2917
  21.800   1.8936   0.22195   0.21925  -0.2011  0.0194  0.7727  -7.1295   0.0000   0.2923
  22.000   1.8915   0.22415   0.22148  -0.2034  0.0190  0.7735  -7.1662   0.0000   0.2927
  22.200   1.8862   0.22697   0.22434  -0.2063  0.0186  0.7742  -7.1779   0.0000   0.2937
  22.400   1.8827   0.22946   0.22686  -0.2090  0.0181  0.7750  -7.2019   0.0000   0.2945
  22.600   1.8802   0.23178   0.22921  -0.2115  0.0177  0.7758  -7.2321   0.0000   0.2951
  22.800   1.8760   0.23441   0.23188  -0.2144  0.0174  0.7765  -7.2488   0.0000   0.2960
  23.000   1.8743   0.23658   0.23409  -0.2168  0.0170  0.7773  -7.2835   0.0000   0.2965
  23.200   1.8733   0.23861   0.23614  -0.2190  0.0166  0.7781  -7.3233   0.0000   0.2969
  23.400   1.8691   0.24124   0.23882  -0.2220  0.0163  0.7789  -7.3367   0.0000   0.2979
  23.600   1.8665   0.24357   0.24117  -0.2247  0.0160  0.7797  -7.3623   0.0000   0.2986
  23.800   1.8649   0.24569   0.24332  -0.2272  0.0157  0.7805  -7.3956   0.0000   0.2991
  24.000   1.8604   0.24838   0.24605  -0.2304  0.0154  0.7811  -7.4031   0.0000   0.3002
  24.200   1.8593   0.25041   0.24811  -0.2328  0.0151  0.7817  -7.4383   0.0000   0.3006
  24.400   1.8589   0.25222   0.24995  -0.2349  0.0149  0.7824  -7.4803   0.0000   0.3009
  24.600   1.8572   0.25416   0.25192  -0.2372  0.0146  0.7832  -7.5119   0.0000   0.3013
  24.800   1.8529   0.25661   0.25442  -0.2402  0.0144  0.7839  -7.5195   0.0000   0.3023
  25.000   1.8514   0.25848   0.25631  -0.2424  0.0141  0.7846  -7.5520   0.0000   0.3027


