xflr5 v6.47

 Calculated polar for: NACA24018_theta30_Ku4.5_Kl0.5_d0.28_delta9.02

 1 1 Reynolds number fixed          Mach number fixed         

 xtrf =   1.000 (top)        1.000 (bottom)
 Mach =   0.000     Re =     0.200 e 6     Ncrit =   5.000

  alpha     CL        CD       CDp       Cm    Top Xtr Bot Xtr   Cpmin    Chinge    XCp    
 ------- -------- --------- --------- -------- ------- ------- -------- --------- ---------
 -15.000  -0.6855   0.06211   0.05650  -0.0838  0.8960  0.0535  -4.8637   0.0000   0.1020
 -14.800  -0.6740   0.06088   0.05516  -0.0854  0.8954  0.0542  -4.7960   0.0000   0.0977
 -14.600  -0.6579   0.05981   0.05394  -0.0876  0.8949  0.0551  -4.7173   0.0000   0.0912
 -14.400  -0.6431   0.05864   0.05262  -0.0893  0.8946  0.0560  -4.6408   0.0000   0.0855
 -14.200  -0.6352   0.05747   0.05148  -0.0888  0.8939  0.0565  -4.5650   0.0000   0.0848
 -14.000  -0.6219   0.05655   0.05059  -0.0892  0.8924  0.0572  -4.4735   0.0000   0.0813
 -13.800  -0.6026   0.05589   0.04991  -0.0905  0.8906  0.0580  -4.3664   0.0000   0.0745
 -13.600  -0.5797   0.05536   0.04932  -0.0923  0.8892  0.0591  -4.2527   0.0000   0.0652
 -13.400  -0.5548   0.05495   0.04881  -0.0943  0.8881  0.0603  -4.1375   0.0000   0.0541
 -13.200  -0.5280   0.05471   0.04844  -0.0963  0.8873  0.0616  -4.0204   0.0000   0.0410
 -12.800  -0.4870   0.05423   0.04802  -0.0982  0.8851  0.0635  -3.8052   0.0000   0.0212
 -12.600  -0.4637   0.05376   0.04753  -0.0995  0.8814  0.0649  -3.6966   0.0000   0.0077
 -12.400  -0.4343   0.05371   0.04740  -0.1016  0.8795  0.0667  -3.5758   0.0000  -0.0125
 -12.000  -0.3830   0.05327   0.04695  -0.1044  0.8722  0.0695  -3.3488   0.0000  -0.0528
 -11.600  -0.3224   0.05283   0.04642  -0.1081  0.8630  0.0735  -3.1038   0.0000  -0.1188
 -11.400  -0.2904   0.05291   0.04651  -0.1102  0.8611  0.0755  -2.9769   0.0000  -0.1652
 -11.200  -0.2636   0.05255   0.04617  -0.1116  0.8553  0.0775  -2.8638   0.0000  -0.2112
 -11.000  -0.2334   0.05257   0.04615  -0.1133  0.8530  0.0800  -2.7462   0.0000  -0.2767
 -10.800  -0.2010   0.05270   0.04629  -0.1154  0.8515  0.0826  -2.6233   0.0000  -0.3700
 -10.600  -0.1755   0.05243   0.04605  -0.1166  0.8460  0.0850  -2.5198   0.0000  -0.4646
 -10.400  -0.1447   0.05248   0.04607  -0.1183  0.8437  0.0882  -2.4103   0.0000  -0.6264
 -10.200  -0.1107   0.05262   0.04624  -0.1206  0.8422  0.0913  -2.2952   0.0000  -0.9129
 -10.000  -0.0846   0.05247   0.04611  -0.1218  0.8371  0.0946  -2.2025   0.0000  -1.2812
  -9.800  -0.0527   0.05252   0.04616  -0.1237  0.8345  0.0986  -2.0999   0.0000  -2.2360
  -9.600  -0.0169   0.05267   0.04634  -0.1262  0.8329  0.1030  -1.9888   0.0000  -7.6159
  -9.400   0.0104   0.05257   0.04624  -0.1274  0.8279  0.1075  -1.8978   0.0000  13.1342
  -9.200   0.0460   0.05264   0.04636  -0.1300  0.8249  0.1130  -1.7901   0.0000   3.2154
  -9.000   0.0842   0.05269   0.04644  -0.1327  0.8230  0.1196  -1.6798   0.0000   1.8978
  -8.800   0.1136   0.05264   0.04641  -0.1343  0.8171  0.1263  -1.5887   0.0000   1.4814
  -8.600   0.1518   0.05276   0.04659  -0.1372  0.8142  0.1349  -1.4868   0.0000   1.1885
  -8.400   0.1919   0.05295   0.04683  -0.1403  0.8125  0.1459  -1.3832   0.0000   1.0070
  -8.200   0.2199   0.05315   0.04710  -0.1418  0.8053  0.1566  -1.3021   0.0000   0.9156
  -8.000   0.2618   0.05352   0.04755  -0.1454  0.8027  0.1742  -1.2008   0.0000   0.8212
  -7.800   0.2930   0.05407   0.04821  -0.1475  0.7938  0.1937  -1.1209   0.0000   0.7665
  -7.600   0.3302   0.05505   0.04936  -0.1508  0.7839  0.2250  -1.0326   0.0000   0.7171
  -7.400   0.3839   0.05698   0.05163  -0.1572  0.7720  0.2939  -0.9247   0.0000   0.6671
  -7.200   0.4289   0.05845   0.05340  -0.1614  0.7611  0.3677  -0.8310   0.0000   0.6324
  -7.000   0.4621   0.05890   0.05396  -0.1632  0.7541  0.4065  -0.8120   0.0000   0.6077
  -6.800   0.4936   0.05937   0.05446  -0.1646  0.7457  0.4326  -0.8434   0.0000   0.5870
  -6.600   0.5242   0.05944   0.05455  -0.1656  0.7392  0.4517  -0.8748   0.0000   0.5687
  -6.400   0.5575   0.05970   0.05479  -0.1672  0.7299  0.4685  -0.9083   0.0000   0.5518
  -6.200   0.5745   0.05898   0.05410  -0.1657  0.7217  0.4775  -0.9307   0.0000   0.5397
  -6.000   0.6082   0.05876   0.05384  -0.1671  0.7126  0.4903  -0.9654   0.0000   0.5253
  -5.800   0.6356   0.05805   0.05309  -0.1673  0.7025  0.4999  -0.9960   0.0000   0.5131
  -5.600   0.6701   0.05710   0.05206  -0.1684  0.6918  0.5094  -1.0338   0.0000   0.5008
  -5.400   0.7221   0.05635   0.05117  -0.1725  0.6762  0.5243  -1.0857   0.0000   0.4878
  -5.200   0.7321   0.05433   0.04909  -0.1693  0.6621  0.5286  -1.1053   0.0000   0.4799
  -5.000   0.7809   0.05301   0.04759  -0.1728  0.6411  0.5421  -1.1559   0.0000   0.4694
  -4.800   0.8050   0.05143   0.04584  -0.1722  0.6201  0.5450  -1.1878   0.0000   0.4618
  -4.600   0.8238   0.05033   0.04458  -0.1710  0.5981  0.5467  -1.2150   0.0000   0.4551
  -4.400   0.8407   0.04979   0.04389  -0.1697  0.5760  0.5487  -1.2402   0.0000   0.4491
  -4.200   0.8581   0.04957   0.04353  -0.1686  0.5548  0.5511  -1.2657   0.0000   0.4434
  -3.800   0.9224   0.05090   0.04450  -0.1722  0.5080  0.5624  -1.3426   0.0000   0.4329
  -3.600   0.9313   0.05086   0.04438  -0.1699  0.4929  0.5635  -1.3622   0.0000   0.4283
  -3.400   0.9415   0.05090   0.04434  -0.1679  0.4792  0.5646  -1.3829   0.0000   0.4238
  -3.200   0.9530   0.05101   0.04436  -0.1660  0.4662  0.5660  -1.4047   0.0000   0.4194
  -3.000   0.9653   0.05114   0.04444  -0.1643  0.4539  0.5676  -1.4272   0.0000   0.4151
  -2.800   0.9787   0.05136   0.04458  -0.1629  0.4423  0.5697  -1.4508   0.0000   0.4110
  -2.400   1.0422   0.05326   0.04628  -0.1666  0.4155  0.5808  -1.5327   0.0000   0.4037
  -2.200   1.0522   0.05334   0.04631  -0.1646  0.4074  0.5816  -1.5547   0.0000   0.4000
  -2.000   1.0630   0.05340   0.04636  -0.1627  0.3993  0.5827  -1.5775   0.0000   0.3963
  -1.800   1.0737   0.05353   0.04643  -0.1608  0.3918  0.5839  -1.6012   0.0000   0.3927
  -1.600   1.0856   0.05366   0.04655  -0.1591  0.3847  0.5853  -1.6265   0.0000   0.3892
  -1.400   1.0986   0.05386   0.04672  -0.1576  0.3776  0.5870  -1.6528   0.0000   0.3858
  -0.800   1.1762   0.05608   0.04879  -0.1600  0.3559  0.5995  -1.7724   0.0000   0.3774
  -0.600   1.1863   0.05616   0.04886  -0.1580  0.3511  0.6004  -1.7976   0.0000   0.3743
  -0.400   1.1972   0.05626   0.04897  -0.1561  0.3459  0.6014  -1.8236   0.0000   0.3713
  -0.200   1.2081   0.05642   0.04912  -0.1543  0.3411  0.6026  -1.8498   0.0000   0.3683
   0.000   1.2197   0.05662   0.04929  -0.1527  0.3367  0.6040  -1.8768   0.0000   0.3654
   0.200   1.2331   0.05684   0.04953  -0.1513  0.3325  0.6057  -1.9056   0.0000   0.3627
   0.400   1.2482   0.05717   0.04987  -0.1502  0.3278  0.6076  -1.9362   0.0000   0.3600
   0.600   1.2652   0.05764   0.05033  -0.1495  0.3230  0.6100  -1.9700   0.0000   0.3576
   0.800   1.2880   0.05842   0.05106  -0.1499  0.3183  0.6140  -2.0115   0.0000   0.3554
   1.000   1.3178   0.05940   0.05206  -0.1514  0.3133  0.6189  -2.0625   0.0000   0.3536
   1.200   1.3277   0.05959   0.05227  -0.1495  0.3094  0.6199  -2.0910   0.0000   0.3510
   1.400   1.3379   0.05984   0.05254  -0.1477  0.3057  0.6210  -2.1199   0.0000   0.3485
   1.600   1.3487   0.06015   0.05283  -0.1460  0.3022  0.6223  -2.1496   0.0000   0.3461
   1.800   1.3610   0.06048   0.05316  -0.1446  0.2989  0.6238  -2.1812   0.0000   0.3437
   2.000   1.3750   0.06086   0.05360  -0.1434  0.2953  0.6256  -2.2146   0.0000   0.3415
   2.200   1.3898   0.06135   0.05412  -0.1424  0.2915  0.6278  -2.2501   0.0000   0.3394
   2.400   1.4070   0.06201   0.05479  -0.1419  0.2876  0.6308  -2.2895   0.0000   0.3374
   2.600   1.4402   0.06348   0.05619  -0.1441  0.2832  0.6369  -2.3515   0.0000   0.3362
   2.800   1.4498   0.06373   0.05652  -0.1423  0.2802  0.6378  -2.3831   0.0000   0.3340
   3.000   1.4597   0.06405   0.05689  -0.1405  0.2771  0.6388  -2.4153   0.0000   0.3318
   3.200   1.4699   0.06445   0.05734  -0.1389  0.2739  0.6400  -2.4480   0.0000   0.3297
   3.400   1.4799   0.06494   0.05784  -0.1372  0.2708  0.6413  -2.4810   0.0000   0.3276
   3.600   1.4900   0.06546   0.05836  -0.1357  0.2679  0.6429  -2.5157   0.0000   0.3256
   3.800   1.5015   0.06601   0.05894  -0.1343  0.2649  0.6448  -2.5522   0.0000   0.3237
   4.000   1.5146   0.06667   0.05967  -0.1333  0.2615  0.6471  -2.5906   0.0000   0.3218
   4.200   1.5300   0.06750   0.06056  -0.1326  0.2579  0.6500  -2.6345   0.0000   0.3202
   4.400   1.5544   0.06890   0.06197  -0.1336  0.2541  0.6543  -2.6931   0.0000   0.3190
   4.600   1.5676   0.06970   0.06277  -0.1327  0.2512  0.6561  -2.7365   0.0000   0.3173
   4.800   1.5760   0.07020   0.06332  -0.1309  0.2486  0.6570  -2.7724   0.0000   0.3154
   5.000   1.5841   0.07078   0.06398  -0.1292  0.2457  0.6582  -2.8077   0.0000   0.3135
   5.200   1.5917   0.07143   0.06471  -0.1275  0.2427  0.6595  -2.8440   0.0000   0.3117
   5.400   1.5994   0.07217   0.06549  -0.1258  0.2398  0.6610  -2.8824   0.0000   0.3099
   5.600   1.6074   0.07295   0.06629  -0.1243  0.2370  0.6627  -2.9218   0.0000   0.3081
   5.800   1.6169   0.07375   0.06708  -0.1230  0.2345  0.6646  -2.9643   0.0000   0.3065
   6.000   1.6282   0.07471   0.06816  -0.1220  0.2314  0.6668  -3.0107   0.0000   0.3049
   6.200   1.6412   0.07587   0.06940  -0.1214  0.2280  0.6693  -3.0602   0.0000   0.3036
   6.400   1.6588   0.07738   0.07097  -0.1217  0.2245  0.6725  -3.1223   0.0000   0.3024
   6.600   1.6699   0.07857   0.07217  -0.1209  0.2217  0.6745  -3.1735   0.0000   0.3011
   6.800   1.6745   0.07937   0.07297  -0.1191  0.2194  0.6755  -3.2127   0.0000   0.2994
   7.000   1.6795   0.08026   0.07399  -0.1174  0.2166  0.6766  -3.2522   0.0000   0.2977
   7.200   1.6846   0.08120   0.07502  -0.1158  0.2137  0.6779  -3.2945   0.0000   0.2961
   7.400   1.6896   0.08224   0.07613  -0.1143  0.2109  0.6792  -3.3404   0.0000   0.2946
   7.600   1.6944   0.08341   0.07735  -0.1129  0.2082  0.6807  -3.3872   0.0000   0.2931
   7.800   1.7002   0.08461   0.07856  -0.1118  0.2057  0.6823  -3.4363   0.0000   0.2918
   8.000   1.7075   0.08588   0.07991  -0.1108  0.2029  0.6840  -3.4879   0.0000   0.2905
   8.200   1.7152   0.08729   0.08143  -0.1101  0.1998  0.6858  -3.5408   0.0000   0.2892
   8.400   1.7235   0.08889   0.08311  -0.1097  0.1966  0.6880  -3.5970   0.0000   0.2882
   8.600   1.7353   0.09083   0.08509  -0.1099  0.1934  0.6910  -3.6621   0.0000   0.2873
   8.800   1.7410   0.09238   0.08664  -0.1093  0.1908  0.6927  -3.7135   0.0000   0.2862
   9.000   1.7429   0.09366   0.08805  -0.1080  0.1881  0.6937  -3.7571   0.0000   0.2849
   9.200   1.7443   0.09504   0.08954  -0.1068  0.1853  0.6947  -3.8011   0.0000   0.2837
   9.400   1.7456   0.09653   0.09110  -0.1057  0.1825  0.6957  -3.8450   0.0000   0.2825
   9.600   1.7469   0.09812   0.09274  -0.1049  0.1799  0.6968  -3.8889   0.0000   0.2814
   9.800   1.7486   0.09974   0.09439  -0.1042  0.1775  0.6980  -3.9365   0.0000   0.2804
  10.000   1.7513   0.10142   0.09618  -0.1037  0.1747  0.6992  -3.9867   0.0000   0.2795
  10.200   1.7535   0.10325   0.09812  -0.1033  0.1717  0.7006  -4.0357   0.0000   0.2786
  10.400   1.7556   0.10517   0.10011  -0.1031  0.1688  0.7021  -4.0844   0.0000   0.2779
  10.600   1.7576   0.10718   0.10216  -0.1031  0.1660  0.7038  -4.1333   0.0000   0.2772
  10.800   1.7608   0.10923   0.10425  -0.1034  0.1634  0.7057  -4.1850   0.0000   0.2766
  11.000   1.7660   0.11153   0.10670  -0.1041  0.1601  0.7081  -4.2430   0.0000   0.2762
  11.200   1.7707   0.11400   0.10926  -0.1051  0.1568  0.7103  -4.3000   0.0000   0.2759
  11.400   1.7678   0.11599   0.11130  -0.1050  0.1543  0.7109  -4.3356   0.0000   0.2753
  11.600   1.7655   0.11795   0.11327  -0.1049  0.1520  0.7117  -4.3742   0.0000   0.2748
  11.800   1.7635   0.12003   0.11548  -0.1052  0.1492  0.7124  -4.4117   0.0000   0.2743
  12.000   1.7609   0.12225   0.11781  -0.1056  0.1463  0.7132  -4.4471   0.0000   0.2740
  12.200   1.7582   0.12453   0.12017  -0.1062  0.1436  0.7141  -4.4818   0.0000   0.2737
  12.400   1.7557   0.12681   0.12248  -0.1069  0.1410  0.7150  -4.5185   0.0000   0.2735
  12.600   1.7534   0.12913   0.12488  -0.1077  0.1385  0.7160  -4.5549   0.0000   0.2734
  12.800   1.7504   0.13161   0.12748  -0.1088  0.1357  0.7170  -4.5874   0.0000   0.2734
  13.000   1.7473   0.13412   0.13007  -0.1100  0.1329  0.7182  -4.6193   0.0000   0.2735
  13.200   1.7448   0.13659   0.13258  -0.1113  0.1304  0.7195  -4.6532   0.0000   0.2736
  13.400   1.7429   0.13908   0.13510  -0.1127  0.1280  0.7209  -4.6882   0.0000   0.2738
  13.600   1.7397   0.14189   0.13805  -0.1146  0.1251  0.7223  -4.7159   0.0000   0.2742
  13.800   1.7373   0.14474   0.14099  -0.1166  0.1222  0.7239  -4.7456   0.0000   0.2747
  14.000   1.7366   0.14756   0.14385  -0.1188  0.1195  0.7255  -4.7839   0.0000   0.2753
  14.200   1.7378   0.15056   0.14690  -0.1215  0.1168  0.7273  -4.8286   0.0000   0.2760
  14.400   1.7319   0.15343   0.14990  -0.1236  0.1140  0.7279  -4.8459   0.0000   0.2766
  14.600   1.7261   0.15615   0.15268  -0.1256  0.1113  0.7284  -4.8640   0.0000   0.2772
  14.800   1.7218   0.15864   0.15519  -0.1274  0.1090  0.7290  -4.8885   0.0000   0.2777
  15.000   1.7170   0.16125   0.15787  -0.1293  0.1066  0.7296  -4.9087   0.0000   0.2783
  15.200   1.7106   0.16418   0.16091  -0.1318  0.1039  0.7302  -4.9195   0.0000   0.2792
  15.400   1.7055   0.16690   0.16368  -0.1340  0.1013  0.7309  -4.9363   0.0000   0.2799
  15.600   1.7033   0.16912   0.16590  -0.1358  0.0991  0.7317  -4.9678   0.0000   0.2803
  15.800   1.6972   0.17208   0.16895  -0.1385  0.0966  0.7325  -4.9758   0.0000   0.2813
  16.000   1.6911   0.17504   0.17201  -0.1412  0.0940  0.7333  -4.9829   0.0000   0.2824
  16.200   1.6881   0.17749   0.17449  -0.1434  0.0916  0.7344  -5.0062   0.0000   0.2831
  16.400   1.6878   0.17956   0.17655  -0.1453  0.0895  0.7357  -5.0434   0.0000   0.2834
  16.600   1.6806   0.18286   0.17998  -0.1486  0.0869  0.7367  -5.0387   0.0000   0.2848
  16.800   1.6767   0.18567   0.18284  -0.1515  0.0845  0.7378  -5.0520   0.0000   0.2859
  17.000   1.6777   0.18774   0.18491  -0.1536  0.0824  0.7393  -5.0928   0.0000   0.2863
  17.200   1.6755   0.19048   0.18771  -0.1565  0.0801  0.7405  -5.1110   0.0000   0.2873
  17.400   1.6709   0.19369   0.19101  -0.1600  0.0776  0.7415  -5.1132   0.0000   0.2888
  17.600   1.6724   0.19606   0.19339  -0.1627  0.0755  0.7429  -5.1507   0.0000   0.2894
  17.800   1.6761   0.19824   0.19557  -0.1654  0.0735  0.7443  -5.1984   0.0000   0.2899
  18.000   1.6688   0.20137   0.19881  -0.1687  0.0712  0.7447  -5.1854   0.0000   0.2914
  18.200   1.6655   0.20372   0.20121  -0.1712  0.0692  0.7452  -5.1975   0.0000   0.2923
  18.400   1.6667   0.20525   0.20272  -0.1727  0.0676  0.7460  -5.2407   0.0000   0.2923
  18.600   1.6637   0.20758   0.20510  -0.1752  0.0658  0.7466  -5.2542   0.0000   0.2931
  18.800   1.6575   0.21055   0.20816  -0.1785  0.0638  0.7472  -5.2441   0.0000   0.2946
  19.000   1.6567   0.21249   0.21012  -0.1806  0.0621  0.7481  -5.2715   0.0000   0.2951
  19.200   1.6607   0.21348   0.21108  -0.1816  0.0607  0.7493  -5.3351   0.0000   0.2946
  19.400   1.6537   0.21667   0.21437  -0.1854  0.0588  0.7500  -5.3145   0.0000   0.2964
  19.600   1.6497   0.21931   0.21708  -0.1885  0.0570  0.7510  -5.3154   0.0000   0.2976
  19.800   1.6517   0.22087   0.21864  -0.1903  0.0556  0.7523  -5.3615   0.0000   0.2977
  20.000   1.6568   0.22190   0.21963  -0.1915  0.0544  0.7538  -5.4314   0.0000   0.2972
  20.200   1.6478   0.22566   0.22353  -0.1962  0.0525  0.7545  -5.3843   0.0000   0.2997
  20.400   1.6466   0.22801   0.22593  -0.1992  0.0509  0.7556  -5.3988   0.0000   0.3006
  20.600   1.6518   0.22927   0.22718  -0.2009  0.0498  0.7569  -5.4649   0.0000   0.3004
  20.800   1.6535   0.23126   0.22918  -0.2035  0.0485  0.7580  -5.4988   0.0000   0.3009
  21.000   1.6461   0.23490   0.23294  -0.2083  0.0467  0.7587  -5.4528   0.0000   0.3033
  21.200   1.6481   0.23704   0.23511  -0.2113  0.0454  0.7599  -5.4836   0.0000   0.3040
  21.400   1.6532   0.23778   0.23583  -0.2122  0.0445  0.7608  -5.5568   0.0000   0.3033
  21.600   1.6491   0.24030   0.23841  -0.2154  0.0432  0.7612  -5.5441   0.0000   0.3046
  21.800   1.6389   0.24420   0.24243  -0.2205  0.0416  0.7615  -5.4689   0.0000   0.3074
  22.000   1.6397   0.24563   0.24387  -0.2223  0.0406  0.7623  -5.5068   0.0000   0.3075
  22.200   1.6446   0.24614   0.24436  -0.2230  0.0399  0.7634  -5.5881   0.0000   0.3066
  22.400   1.6346   0.25006   0.24839  -0.2281  0.0384  0.7638  -5.5068   0.0000   0.3095
  22.600   1.6230   0.25446   0.25288  -0.2339  0.0367  0.7641  -5.3979   0.0000   0.3129


