xflr5 v6.47

 Calculated polar for: NACA24018_theta30_Ku4.5_Kl0.5_d0.00_delta0.00

 1 1 Reynolds number fixed          Mach number fixed         

 xtrf =   1.000 (top)        1.000 (bottom)
 Mach =   0.000     Re =     1.800 e 6     Ncrit =   5.000

  alpha     CL        CD       CDp       Cm    Top Xtr Bot Xtr   Cpmin    Chinge    XCp    
 ------- -------- --------- --------- -------- ------- ------- -------- --------- ---------
 -15.000  -1.2560   0.02084   0.01569  -0.0576  1.0000  0.0221  -7.7073   0.0000   0.1818
 -14.800  -1.2485   0.02032   0.01516  -0.0558  1.0000  0.0223  -7.6000   0.0000   0.1834
 -14.600  -1.2410   0.01984   0.01465  -0.0538  1.0000  0.0225  -7.4935   0.0000   0.1850
 -14.400  -1.2339   0.01939   0.01418  -0.0518  1.0000  0.0226  -7.3882   0.0000   0.1868
 -14.200  -1.2236   0.01896   0.01373  -0.0503  0.9999  0.0228  -7.2717   0.0000   0.1880
 -14.000  -1.2032   0.01850   0.01325  -0.0507  0.9993  0.0231  -7.1183   0.0000   0.1873
 -13.800  -1.1825   0.01806   0.01280  -0.0510  0.9985  0.0232  -6.9652   0.0000   0.1865
 -13.600  -1.1622   0.01759   0.01232  -0.0514  0.9975  0.0236  -6.8152   0.0000   0.1857
 -13.200  -1.1237   0.01671   0.01142  -0.0514  0.9937  0.0243  -6.5253   0.0000   0.1846
 -13.000  -1.1046   0.01631   0.01102  -0.0514  0.9917  0.0246  -6.3822   0.0000   0.1841
 -12.800  -1.0844   0.01593   0.01063  -0.0515  0.9898  0.0250  -6.2363   0.0000   0.1834
 -12.600  -1.0632   0.01557   0.01027  -0.0517  0.9881  0.0254  -6.0908   0.0000   0.1825
 -12.400  -1.0444   0.01524   0.00993  -0.0515  0.9852  0.0258  -5.9569   0.0000   0.1821
 -12.200  -1.0250   0.01492   0.00960  -0.0513  0.9817  0.0261  -5.8218   0.0000   0.1816
 -12.000  -1.0028   0.01460   0.00927  -0.0516  0.9792  0.0264  -5.6790   0.0000   0.1803
 -11.800  -0.9827   0.01427   0.00893  -0.0515  0.9750  0.0268  -5.5450   0.0000   0.1796
 -11.600  -0.9591   0.01393   0.00860  -0.0521  0.9716  0.0273  -5.4007   0.0000   0.1778
 -11.400  -0.9331   0.01361   0.00828  -0.0532  0.9687  0.0278  -5.2502   0.0000   0.1753
 -11.200  -0.9073   0.01331   0.00797  -0.0542  0.9640  0.0283  -5.1015   0.0000   0.1727
 -11.000  -0.8763   0.01300   0.00767  -0.0563  0.9604  0.0289  -4.9392   0.0000   0.1683
 -10.800  -0.8417   0.01271   0.00737  -0.0591  0.9564  0.0294  -4.7681   0.0000   0.1623
 -10.600  -0.8054   0.01240   0.00706  -0.0623  0.9500  0.0301  -4.5946   0.0000   0.1552
 -10.400  -0.7699   0.01209   0.00674  -0.0654  0.9415  0.0310  -4.4317   0.0000   0.1476
 -10.200  -0.7371   0.01182   0.00645  -0.0678  0.9300  0.0318  -4.2781   0.0000   0.1405
 -10.000  -0.7105   0.01162   0.00620  -0.0689  0.9144  0.0324  -4.1436   0.0000   0.1355
  -9.800  -0.6905   0.01147   0.00598  -0.0685  0.8950  0.0330  -4.0283   0.0000   0.1334
  -9.600  -0.6755   0.01137   0.00579  -0.0671  0.8717  0.0334  -3.9276   0.0000   0.1335
  -9.400  -0.6635   0.01126   0.00560  -0.0650  0.8472  0.0340  -3.8357   0.0000   0.1351
  -9.200  -0.6525   0.01117   0.00542  -0.0627  0.8227  0.0346  -3.7469   0.0000   0.1372
  -9.000  -0.6407   0.01108   0.00524  -0.0605  0.7991  0.0353  -3.6569   0.0000   0.1390
  -8.800  -0.6286   0.01099   0.00508  -0.0584  0.7776  0.0359  -3.5666   0.0000   0.1407
  -8.600  -0.6155   0.01090   0.00493  -0.0565  0.7574  0.0366  -3.4763   0.0000   0.1420
  -8.400  -0.6021   0.01083   0.00478  -0.0546  0.7384  0.0372  -3.3880   0.0000   0.1432
  -8.200  -0.5885   0.01073   0.00463  -0.0528  0.7217  0.0380  -3.3002   0.0000   0.1444
  -8.000  -0.5749   0.01063   0.00449  -0.0510  0.7063  0.0389  -3.2132   0.0000   0.1456
  -7.800  -0.5610   0.01054   0.00435  -0.0492  0.6910  0.0397  -3.1262   0.0000   0.1467
  -7.400  -0.5325   0.01043   0.00414  -0.0458  0.6618  0.0413  -2.9530   0.0000   0.1488
  -7.200  -0.5177   0.01037   0.00404  -0.0441  0.6475  0.0421  -2.8666   0.0000   0.1497
  -7.000  -0.5023   0.01029   0.00393  -0.0426  0.6337  0.0434  -2.7795   0.0000   0.1501
  -6.800  -0.4859   0.01022   0.00382  -0.0414  0.6204  0.0447  -2.6908   0.0000   0.1499
  -6.600  -0.4690   0.01016   0.00372  -0.0402  0.6065  0.0458  -2.6022   0.0000   0.1495
  -6.400  -0.4517   0.01010   0.00362  -0.0391  0.5930  0.0468  -2.5154   0.0000   0.1488
  -6.200  -0.4347   0.01002   0.00352  -0.0379  0.5812  0.0483  -2.4321   0.0000   0.1481
  -6.000  -0.4172   0.00996   0.00342  -0.0368  0.5698  0.0500  -2.3488   0.0000   0.1471
  -5.800  -0.3993   0.00990   0.00333  -0.0358  0.5584  0.0514  -2.2656   0.0000   0.1456
  -5.600  -0.3813   0.00984   0.00325  -0.0348  0.5470  0.0530  -2.1833   0.0000   0.1440
  -5.400  -0.3635   0.00978   0.00316  -0.0338  0.5347  0.0547  -2.1023   0.0000   0.1423
  -5.200  -0.3456   0.00974   0.00308  -0.0328  0.5209  0.0564  -2.0224   0.0000   0.1403
  -5.000  -0.3275   0.00971   0.00301  -0.0319  0.5069  0.0581  -1.9461   0.0000   0.1380
  -4.800  -0.3096   0.00966   0.00293  -0.0309  0.4939  0.0607  -1.8712   0.0000   0.1355
  -4.600  -0.2912   0.00962   0.00286  -0.0300  0.4825  0.0629  -1.7962   0.0000   0.1322
  -4.400  -0.2724   0.00958   0.00280  -0.0291  0.4718  0.0650  -1.7236   0.0000   0.1281
  -4.200  -0.2538   0.00953   0.00273  -0.0283  0.4620  0.0677  -1.6533   0.0000   0.1234
  -4.000  -0.2349   0.00949   0.00267  -0.0275  0.4524  0.0703  -1.5835   0.0000   0.1177
  -3.800  -0.2163   0.00945   0.00261  -0.0266  0.4419  0.0736  -1.5151   0.0000   0.1113
  -3.600  -0.1973   0.00941   0.00255  -0.0258  0.4317  0.0771  -1.4469   0.0000   0.1033
  -3.400  -0.1785   0.00938   0.00250  -0.0250  0.4214  0.0807  -1.3798   0.0000   0.0936
  -3.200  -0.1598   0.00935   0.00245  -0.0241  0.4113  0.0852  -1.3168   0.0000   0.0819
  -3.000  -0.1406   0.00931   0.00241  -0.0234  0.4026  0.0900  -1.2540   0.0000   0.0660
  -2.800  -0.1216   0.00928   0.00236  -0.0226  0.3939  0.0951  -1.1921   0.0000   0.0454
  -2.600  -0.1028   0.00925   0.00232  -0.0218  0.3843  0.1011  -1.1315   0.0000   0.0183
  -2.400  -0.0836   0.00921   0.00228  -0.0210  0.3759  0.1077  -1.0713   0.0000  -0.0234
  -2.200  -0.0648   0.00918   0.00225  -0.0202  0.3679  0.1156  -1.0150   0.0000  -0.0869
  -2.000  -0.0457   0.00912   0.00221  -0.0194  0.3613  0.1250  -0.9590   0.0000  -0.2070
  -1.800  -0.0270   0.00907   0.00217  -0.0186  0.3542  0.1362  -0.9048   0.0000  -0.4832
  -1.600  -0.0081   0.00901   0.00214  -0.0178  0.3478  0.1497  -0.8532   0.0000  -2.0674
  -1.200   0.0281   0.00883   0.00206  -0.0159  0.3356  0.1908  -0.7789   0.0000   0.8372
  -1.000   0.0440   0.00863   0.00199  -0.0146  0.3303  0.2339  -0.7986   0.0000   0.5899
  -0.800   0.0566   0.00831   0.00190  -0.0126  0.3257  0.3069  -0.8165   0.0000   0.4763
  -0.600   0.0728   0.00812   0.00185  -0.0113  0.3215  0.3510  -0.8376   0.0000   0.4052
  -0.400   0.0892   0.00797   0.00182  -0.0100  0.3164  0.3912  -0.8590   0.0000   0.3602
  -0.200   0.1067   0.00789   0.00181  -0.0090  0.3115  0.4203  -0.8811   0.0000   0.3301
   0.000   0.1254   0.00782   0.00180  -0.0081  0.3079  0.4418  -0.9042   0.0000   0.3097
   0.200   0.1440   0.00776   0.00180  -0.0073  0.3041  0.4653  -0.9272   0.0000   0.2944
   0.400   0.1621   0.00771   0.00180  -0.0063  0.3002  0.4880  -0.9505   0.0000   0.2822
   0.600   0.1812   0.00768   0.00181  -0.0056  0.2969  0.5060  -0.9752   0.0000   0.2734
   0.800   0.2004   0.00764   0.00182  -0.0048  0.2935  0.5245  -1.0002   0.0000   0.2662
   1.000   0.2186   0.00760   0.00183  -0.0039  0.2897  0.5466  -1.0245   0.0000   0.2595
   1.200   0.2369   0.00757   0.00185  -0.0029  0.2858  0.5685  -1.0490   0.0000   0.2538
   1.400   0.2552   0.00753   0.00187  -0.0020  0.2833  0.5899  -1.0736   0.0000   0.2490
   1.600   0.2736   0.00748   0.00189  -0.0011  0.2807  0.6130  -1.0984   0.0000   0.2448
   1.800   0.2918   0.00745   0.00191  -0.0001  0.2776  0.6329  -1.1233   0.0000   0.2410
   2.000   0.3110   0.00748   0.00195   0.0006  0.2739  0.6446  -1.1502   0.0000   0.2384
   2.200   0.3304   0.00751   0.00198   0.0013  0.2705  0.6536  -1.1772   0.0000   0.2362
   2.400   0.3501   0.00752   0.00201   0.0020  0.2681  0.6629  -1.2048   0.0000   0.2344
   2.600   0.3699   0.00754   0.00204   0.0026  0.2652  0.6730  -1.2336   0.0000   0.2328
   2.800   0.3887   0.00757   0.00208   0.0034  0.2619  0.6837  -1.2620   0.0000   0.2308
   3.000   0.4074   0.00760   0.00213   0.0042  0.2583  0.6941  -1.2902   0.0000   0.2290
   3.200   0.4268   0.00763   0.00217   0.0049  0.2561  0.7043  -1.3193   0.0000   0.2277
   3.400   0.4459   0.00764   0.00221   0.0057  0.2539  0.7147  -1.3482   0.0000   0.2263
   3.600   0.4646   0.00767   0.00226   0.0065  0.2513  0.7251  -1.3777   0.0000   0.2248
   3.800   0.4831   0.00771   0.00231   0.0074  0.2483  0.7356  -1.4077   0.0000   0.2234
   4.000   0.5011   0.00776   0.00237   0.0083  0.2448  0.7472  -1.4375   0.0000   0.2218
   4.200   0.5193   0.00777   0.00242   0.0093  0.2428  0.7592  -1.4676   0.0000   0.2204
   4.400   0.5374   0.00780   0.00247   0.0102  0.2406  0.7704  -1.4977   0.0000   0.2191
   4.600   0.5554   0.00783   0.00253   0.0112  0.2382  0.7812  -1.5279   0.0000   0.2177
   4.800   0.5728   0.00788   0.00260   0.0123  0.2354  0.7924  -1.5584   0.0000   0.2163
   5.000   0.5886   0.00792   0.00266   0.0137  0.2322  0.8041  -1.5883   0.0000   0.2142
   5.200   0.6047   0.00794   0.00272   0.0150  0.2301  0.8160  -1.6185   0.0000   0.2123
   5.400   0.6207   0.00797   0.00278   0.0164  0.2279  0.8279  -1.6489   0.0000   0.2106
   5.600   0.6369   0.00801   0.00285   0.0177  0.2257  0.8396  -1.6796   0.0000   0.2089
   5.800   0.6530   0.00807   0.00293   0.0191  0.2232  0.8518  -1.7102   0.0000   0.2074
   6.000   0.6687   0.00814   0.00303   0.0205  0.2203  0.8646  -1.7406   0.0000   0.2057
   6.200   0.6851   0.00820   0.00312   0.0217  0.2180  0.8777  -1.7737   0.0000   0.2044
   6.400   0.7026   0.00825   0.00322   0.0228  0.2158  0.8905  -1.8093   0.0000   0.2035
   6.600   0.7211   0.00833   0.00332   0.0235  0.2132  0.9027  -1.8460   0.0000   0.2031
   6.800   0.7408   0.00843   0.00344   0.0240  0.2102  0.9139  -1.8841   0.0000   0.2031
   7.000   0.7623   0.00855   0.00357   0.0241  0.2070  0.9243  -1.9241   0.0000   0.2037
   7.400   0.8154   0.00877   0.00383   0.0220  0.2028  0.9414  -2.0153   0.0000   0.2080
   7.600   0.8440   0.00892   0.00398   0.0205  0.1997  0.9480  -2.0649   0.0000   0.2105
   7.800   0.8745   0.00911   0.00415   0.0185  0.1960  0.9529  -2.1178   0.0000   0.2135
   8.000   0.9026   0.00927   0.00430   0.0171  0.1933  0.9580  -2.1704   0.0000   0.2155
   8.200   0.9344   0.00943   0.00446   0.0149  0.1905  0.9603  -2.2276   0.0000   0.2184
   8.400   0.9654   0.00961   0.00462   0.0128  0.1874  0.9627  -2.2842   0.0000   0.2209
   8.600   0.9930   0.00980   0.00480   0.0114  0.1843  0.9660  -2.3385   0.0000   0.2224
   8.800   1.0185   0.00998   0.00497   0.0105  0.1816  0.9692  -2.3917   0.0000   0.2233
   9.000   1.0457   0.01015   0.00513   0.0092  0.1791  0.9710  -2.4475   0.0000   0.2246
   9.200   1.0706   0.01033   0.00531   0.0084  0.1763  0.9733  -2.5008   0.0000   0.2253
   9.400   1.0916   0.01054   0.00550   0.0084  0.1730  0.9768  -2.5496   0.0000   0.2252
   9.600   1.1136   0.01074   0.00569   0.0082  0.1698  0.9793  -2.6050   0.0000   0.2253
   9.800   1.1370   0.01093   0.00588   0.0077  0.1669  0.9811  -2.6644   0.0000   0.2256
  10.000   1.1588   0.01115   0.00609   0.0075  0.1637  0.9834  -2.7219   0.0000   0.2256
  10.200   1.1766   0.01140   0.00631   0.0081  0.1604  0.9870  -2.7742   0.0000   0.2249
  10.400   1.2003   0.01160   0.00652   0.0074  0.1581  0.9882  -2.8352   0.0000   0.2253
  10.600   1.2235   0.01182   0.00673   0.0068  0.1551  0.9894  -2.9030   0.0000   0.2256
  10.800   1.2450   0.01210   0.00699   0.0065  0.1509  0.9910  -2.9688   0.0000   0.2257
  11.000   1.2658   0.01237   0.00724   0.0064  0.1473  0.9926  -3.0340   0.0000   0.2256
  11.200   1.2865   0.01261   0.00748   0.0062  0.1446  0.9942  -3.0998   0.0000   0.2254
  11.400   1.3069   0.01288   0.00775   0.0061  0.1419  0.9957  -3.1652   0.0000   0.2253
  11.600   1.3281   0.01319   0.00804   0.0058  0.1388  0.9972  -3.2324   0.0000   0.2253
  11.800   1.3503   0.01346   0.00831   0.0053  0.1366  0.9982  -3.3017   0.0000   0.2254
  12.000   1.3721   0.01375   0.00859   0.0048  0.1334  0.9990  -3.3810   0.0000   0.2255
  12.200   1.3921   0.01415   0.00897   0.0045  0.1288  0.9997  -3.4582   0.0000   0.2254
  12.400   1.4068   0.01447   0.00928   0.0054  0.1257  1.0000  -3.5259   0.0000   0.2245
  12.600   1.4144   0.01477   0.00959   0.0076  0.1230  1.0000  -3.5806   0.0000   0.2225
  12.800   1.4215   0.01513   0.00994   0.0099  0.1202  1.0000  -3.6356   0.0000   0.2206
  13.000   1.4285   0.01553   0.01034   0.0121  0.1173  1.0000  -3.6932   0.0000   0.2187
  13.200   1.4380   0.01587   0.01069   0.0139  0.1153  1.0000  -3.7589   0.0000   0.2172
  13.400   1.4465   0.01628   0.01111   0.0157  0.1126  1.0000  -3.8229   0.0000   0.2156
  13.600   1.4532   0.01680   0.01162   0.0177  0.1094  1.0000  -3.8829   0.0000   0.2139
  13.800   1.4617   0.01728   0.01210   0.0193  0.1068  1.0000  -3.9471   0.0000   0.2124
  14.000   1.4702   0.01778   0.01260   0.0209  0.1041  1.0000  -4.0133   0.0000   0.2110
  14.200   1.4770   0.01839   0.01322   0.0226  0.1011  1.0000  -4.0760   0.0000   0.2095
  14.400   1.4842   0.01902   0.01385   0.0242  0.0985  1.0000  -4.1401   0.0000   0.2081
  14.600   1.4930   0.01960   0.01444   0.0255  0.0962  1.0000  -4.2083   0.0000   0.2069
  14.800   1.5002   0.02029   0.01514   0.0269  0.0936  1.0000  -4.2746   0.0000   0.2057
  15.000   1.5057   0.02113   0.01597   0.0283  0.0908  1.0000  -4.3370   0.0000   0.2043
  15.200   1.5135   0.02186   0.01673   0.0294  0.0887  1.0000  -4.4056   0.0000   0.2033
  15.400   1.5201   0.02270   0.01758   0.0306  0.0862  1.0000  -4.4714   0.0000   0.2021
  15.600   1.5245   0.02372   0.01860   0.0318  0.0835  1.0000  -4.5334   0.0000   0.2010
  15.800   1.5303   0.02470   0.01960   0.0328  0.0814  1.0000  -4.5992   0.0000   0.1999
  16.000   1.5363   0.02570   0.02062   0.0336  0.0792  1.0000  -4.6657   0.0000   0.1990
  16.200   1.5398   0.02691   0.02184   0.0346  0.0767  1.0000  -4.7253   0.0000   0.1980
  16.400   1.5423   0.02825   0.02320   0.0354  0.0744  1.0000  -4.7834   0.0000   0.1969
  16.600   1.5469   0.02948   0.02445   0.0360  0.0725  1.0000  -4.8485   0.0000   0.1961
  16.800   1.5494   0.03093   0.02593   0.0367  0.0704  1.0000  -4.9079   0.0000   0.1953
  17.000   1.5493   0.03263   0.02765   0.0373  0.0682  1.0000  -4.9602   0.0000   0.1944
  17.200   1.5513   0.03422   0.02927   0.0377  0.0665  1.0000  -5.0193   0.0000   0.1936
  17.400   1.5526   0.03593   0.03101   0.0380  0.0647  1.0000  -5.0755   0.0000   0.1929
  17.600   1.5512   0.03792   0.03303   0.0382  0.0629  1.0000  -5.1233   0.0000   0.1922
  17.800   1.5480   0.04014   0.03529   0.0384  0.0612  1.0000  -5.1647   0.0000   0.1915
  18.000   1.5476   0.04216   0.03735   0.0384  0.0599  1.0000  -5.2167   0.0000   0.1909
  18.200   1.5454   0.04440   0.03964   0.0383  0.0585  1.0000  -5.2625   0.0000   0.1904
  18.400   1.5408   0.04693   0.04221   0.0382  0.0570  1.0000  -5.2993   0.0000   0.1898
  18.600   1.5335   0.04980   0.04513   0.0379  0.0556  1.0000  -5.3262   0.0000   0.1893
  18.800   1.5274   0.05262   0.04799   0.0375  0.0545  1.0000  -5.3564   0.0000   0.1889
  19.000   1.5215   0.05544   0.05088   0.0370  0.0535  1.0000  -5.3870   0.0000   0.1885
  19.200   1.5137   0.05852   0.05401   0.0364  0.0523  1.0000  -5.4099   0.0000   0.1882
  19.400   1.5035   0.06196   0.05750   0.0357  0.0512  1.0000  -5.4228   0.0000   0.1879
  19.600   1.4904   0.06578   0.06139   0.0348  0.0501  1.0000  -5.4242   0.0000   0.1877
  19.800   1.4781   0.06955   0.06523   0.0338  0.0492  1.0000  -5.4272   0.0000   0.1875
  20.000   1.4673   0.07321   0.06895   0.0328  0.0484  1.0000  -5.4350   0.0000   0.1874
  20.200   1.4552   0.07706   0.07287   0.0317  0.0476  1.0000  -5.4369   0.0000   0.1874
  20.400   1.4418   0.08111   0.07698   0.0305  0.0467  1.0000  -5.4323   0.0000   0.1874
  20.600   1.4273   0.08537   0.08130   0.0292  0.0459  1.0000  -5.4221   0.0000   0.1875
  20.800   1.4119   0.08980   0.08580   0.0277  0.0451  1.0000  -5.4067   0.0000   0.1877
  21.200   1.3840   0.09839   0.09453   0.0246  0.0438  1.0000  -5.3836   0.0000   0.1882
  21.400   1.3716   0.10257   0.09877   0.0231  0.0431  1.0000  -5.3761   0.0000   0.1886
  21.600   1.3596   0.10670   0.10296   0.0215  0.0424  1.0000  -5.3692   0.0000   0.1890
  21.800   1.3488   0.11068   0.10699   0.0199  0.0416  1.0000  -5.3661   0.0000   0.1895
  22.000   1.3353   0.11511   0.11148   0.0180  0.0408  1.0000  -5.3495   0.0000   0.1901
  22.200   1.3224   0.11952   0.11593   0.0161  0.0400  1.0000  -5.3337   0.0000   0.1908
  22.400   1.3152   0.12309   0.11955   0.0145  0.0393  1.0000  -5.3431   0.0000   0.1914
  22.600   1.3060   0.12699   0.12350   0.0126  0.0387  1.0000  -5.3425   0.0000   0.1921
  22.800   1.3003   0.13036   0.12692   0.0110  0.0378  1.0000  -5.3574   0.0000   0.1927
  23.000   1.2908   0.13439   0.13099   0.0090  0.0370  1.0000  -5.3523   0.0000   0.1936
  23.200   1.2846   0.13790   0.13454   0.0072  0.0361  1.0000  -5.3620   0.0000   0.1944
  23.600   1.2724   0.14496   0.14167   0.0033  0.0348  1.0000  -5.3784   0.0000   0.1961
  23.800   1.2659   0.14858   0.14534   0.0013  0.0341  1.0000  -5.3841   0.0000   0.1971
  24.000   1.2625   0.15171   0.14850  -0.0005  0.0333  1.0000  -5.4052   0.0000   0.1980
  24.200   1.2570   0.15522   0.15204  -0.0026  0.0326  1.0000  -5.4138   0.0000   0.1990
  24.400   1.2515   0.15874   0.15559  -0.0048  0.0319  1.0000  -5.4209   0.0000   0.2001
  24.600   1.2495   0.16170   0.15858  -0.0067  0.0312  1.0000  -5.4472   0.0000   0.2010
  24.800   1.2452   0.16505   0.16197  -0.0088  0.0306  1.0000  -5.4604   0.0000   0.2021
  25.000   1.2436   0.16795   0.16490  -0.0107  0.0299  1.0000  -5.4875   0.0000   0.2030


