xflr5 v6.47

 Calculated polar for: NACA24018_theta30_Ku4.5_Kl0.5_d0.28_delta9.02

 1 1 Reynolds number fixed          Mach number fixed         

 xtrf =   1.000 (top)        1.000 (bottom)
 Mach =   0.000     Re =     2.400 e 6     Ncrit =   5.000

  alpha     CL        CD       CDp       Cm    Top Xtr Bot Xtr   Cpmin    Chinge    XCp    
 ------- -------- --------- --------- -------- ------- ------- -------- --------- ---------
 -15.000  -0.3717   0.03636   0.03256  -0.1543  0.8238  0.0365  -4.3233   0.0000  -0.2094
 -14.800  -0.3449   0.03651   0.03272  -0.1556  0.8238  0.0369  -4.1883   0.0000  -0.2475
 -14.600  -0.3178   0.03668   0.03301  -0.1570  0.8238  0.0375  -4.0539   0.0000  -0.2928
 -14.400  -0.2896   0.03686   0.03309  -0.1585  0.8238  0.0383  -3.9182   0.0000  -0.3494
 -14.200  -0.2615   0.03707   0.03331  -0.1600  0.8237  0.0392  -3.7841   0.0000  -0.4178
 -14.000  -0.2336   0.03729   0.03354  -0.1614  0.8237  0.0400  -3.6522   0.0000  -0.5018
 -13.800  -0.2059   0.03753   0.03379  -0.1628  0.8237  0.0407  -3.5223   0.0000  -0.6075
 -13.600  -0.1784   0.03777   0.03404  -0.1641  0.8236  0.0413  -3.3946   0.0000  -0.7446
 -13.400  -0.1476   0.03794   0.03422  -0.1659  0.8236  0.0425  -3.2597   0.0000  -0.9625
 -13.200  -0.1123   0.03786   0.03416  -0.1684  0.8235  0.0441  -3.1150   0.0000  -1.3613
  -9.600   0.4360   0.04037   0.03627  -0.1966  0.6444  0.0807  -1.2011   0.0000   0.7154
  -9.400   0.4485   0.04147   0.03720  -0.1954  0.6011  0.0831  -1.1466   0.0000   0.6989
  -9.200   0.4696   0.04221   0.03783  -0.1955  0.5705  0.0869  -1.0811   0.0000   0.6782
  -9.000   0.4922   0.04281   0.03833  -0.1958  0.5443  0.0907  -1.0147   0.0000   0.6585
  -8.800   0.5165   0.04338   0.03881  -0.1963  0.5194  0.0953  -0.9533   0.0000   0.6398
  -8.600   0.5410   0.04389   0.03924  -0.1969  0.4963  0.0998  -0.9552   0.0000   0.6225
  -8.400   0.5670   0.04440   0.03969  -0.1977  0.4771  0.1059  -0.9590   0.0000   0.6063
  -8.200   0.5937   0.04493   0.04016  -0.1986  0.4585  0.1126  -0.9635   0.0000   0.5913
  -8.000   0.6195   0.04541   0.04058  -0.1994  0.4401  0.1189  -0.9674   0.0000   0.5777
  -7.800   0.6470   0.04595   0.04107  -0.2004  0.4234  0.1278  -0.9729   0.0000   0.5649
  -7.600   0.6756   0.04652   0.04161  -0.2016  0.4089  0.1382  -0.9793   0.0000   0.5529
  -7.400   0.7053   0.04713   0.04220  -0.2030  0.3971  0.1510  -0.9882   0.0000   0.5416
  -7.200   0.7359   0.04777   0.04283  -0.2046  0.3855  0.1662  -1.0200   0.0000   0.5311
  -6.800   0.7999   0.04921   0.04426  -0.2081  0.3625  0.2063  -1.0866   0.0000   0.5122
  -6.600   0.8411   0.05032   0.04541  -0.2115  0.3503  0.2491  -1.1272   0.0000   0.5029
  -6.400   0.8851   0.05159   0.04673  -0.2154  0.3398  0.2960  -1.1720   0.0000   0.4942
  -6.200   0.9262   0.05276   0.04793  -0.2187  0.3307  0.3371  -1.2151   0.0000   0.4865
  -6.000   0.9649   0.05385   0.04904  -0.2215  0.3214  0.3723  -1.2572   0.0000   0.4795
  -5.800   0.9932   0.05450   0.04968  -0.2225  0.3155  0.3865  -1.2922   0.0000   0.4736
  -5.600   1.0209   0.05513   0.05031  -0.2235  0.3110  0.4005  -1.3270   0.0000   0.4680
  -5.400   1.0475   0.05572   0.05088  -0.2242  0.3051  0.4143  -1.3612   0.0000   0.4628
  -5.200   1.0744   0.05632   0.05147  -0.2250  0.2992  0.4249  -1.3958   0.0000   0.4578
  -5.000   1.0980   0.05678   0.05193  -0.2252  0.2955  0.4327  -1.4293   0.0000   0.4531
  -4.800   1.1260   0.05746   0.05260  -0.2261  0.2910  0.4451  -1.4669   0.0000   0.4485
  -4.600   1.1560   0.05825   0.05338  -0.2274  0.2859  0.4613  -1.5066   0.0000   0.4440
  -4.400   1.1815   0.05882   0.05395  -0.2279  0.2820  0.4724  -1.5423   0.0000   0.4398
  -4.200   1.2056   0.05935   0.05447  -0.2281  0.2788  0.4793  -1.5772   0.0000   0.4359
  -4.000   1.2266   0.05971   0.05481  -0.2279  0.2749  0.4829  -1.6093   0.0000   0.4321
  -3.800   1.2468   0.06004   0.05511  -0.2275  0.2702  0.4859  -1.6408   0.0000   0.4284
  -3.600   1.2682   0.06043   0.05548  -0.2273  0.2660  0.4893  -1.6744   0.0000   0.4249
  -3.400   1.2908   0.06090   0.05594  -0.2273  0.2634  0.4936  -1.7101   0.0000   0.4214
  -3.200   1.3124   0.06131   0.05634  -0.2271  0.2601  0.4976  -1.7459   0.0000   0.4181
  -3.000   1.3329   0.06167   0.05669  -0.2268  0.2568  0.5012  -1.7815   0.0000   0.4149
  -2.800   1.3526   0.06200   0.05699  -0.2263  0.2528  0.5039  -1.8165   0.0000   0.4117
  -2.600   1.3723   0.06233   0.05730  -0.2258  0.2495  0.5061  -1.8515   0.0000   0.4087
  -2.400   1.3944   0.06279   0.05776  -0.2257  0.2471  0.5100  -1.8906   0.0000   0.4057
  -2.200   1.4161   0.06324   0.05820  -0.2256  0.2440  0.5140  -1.9298   0.0000   0.4028
  -2.000   1.4367   0.06364   0.05859  -0.2252  0.2408  0.5178  -1.9681   0.0000   0.3999
  -1.800   1.4563   0.06400   0.05892  -0.2247  0.2373  0.5210  -2.0055   0.0000   0.3972
  -1.600   1.4753   0.06432   0.05923  -0.2242  0.2342  0.5234  -2.0424   0.0000   0.3945
  -1.400   1.4952   0.06469   0.05960  -0.2237  0.2323  0.5261  -2.0805   0.0000   0.3919
  -1.200   1.5160   0.06512   0.06003  -0.2234  0.2292  0.5297  -2.1197   0.0000   0.3893
  -1.000   1.5358   0.06552   0.06041  -0.2229  0.2251  0.5330  -2.1581   0.0000   0.3868
  -0.800   1.5550   0.06590   0.06076  -0.2224  0.2206  0.5365  -2.1967   0.0000   0.3843
  -0.600   1.5740   0.06625   0.06110  -0.2217  0.2183  0.5397  -2.2380   0.0000   0.3819
  -0.400   1.5925   0.06657   0.06143  -0.2211  0.2164  0.5422  -2.2789   0.0000   0.3795
  -0.200   1.6117   0.06695   0.06181  -0.2205  0.2140  0.5451  -2.3209   0.0000   0.3772
   0.000   1.6314   0.06738   0.06222  -0.2200  0.2110  0.5484  -2.3636   0.0000   0.3749
   0.200   1.6502   0.06778   0.06260  -0.2194  0.2071  0.5515  -2.4055   0.0000   0.3727
   0.400   1.6687   0.06816   0.06297  -0.2187  0.2040  0.5545  -2.4473   0.0000   0.3705
   0.600   1.6870   0.06852   0.06333  -0.2180  0.2017  0.5575  -2.4890   0.0000   0.3684
   0.800   1.7049   0.06887   0.06367  -0.2172  0.1989  0.5602  -2.5327   0.0000   0.3662
   1.000   1.7226   0.06923   0.06402  -0.2164  0.1959  0.5626  -2.5777   0.0000   0.3641
   1.200   1.7415   0.06969   0.06447  -0.2158  0.1924  0.5661  -2.6246   0.0000   0.3621
   1.400   1.7599   0.07011   0.06489  -0.2152  0.1899  0.5691  -2.6711   0.0000   0.3601
   1.600   1.7779   0.07051   0.06529  -0.2144  0.1878  0.5720  -2.7172   0.0000   0.3581
   1.800   1.7952   0.07089   0.06567  -0.2135  0.1849  0.5749  -2.7636   0.0000   0.3561
   2.000   1.8118   0.07129   0.06605  -0.2126  0.1813  0.5777  -2.8103   0.0000   0.3542
   2.200   1.8280   0.07168   0.06642  -0.2116  0.1771  0.5798  -2.8564   0.0000   0.3523
   2.400   1.8452   0.07208   0.06683  -0.2107  0.1751  0.5825  -2.9056   0.0000   0.3504
   2.600   1.8624   0.07252   0.06727  -0.2099  0.1725  0.5855  -2.9578   0.0000   0.3485
   2.800   1.8787   0.07297   0.06771  -0.2089  0.1692  0.5882  -3.0089   0.0000   0.3467
   3.000   1.8941   0.07346   0.06817  -0.2078  0.1649  0.5910  -3.0589   0.0000   0.3448
   3.200   1.9095   0.07395   0.06867  -0.2067  0.1625  0.5939  -3.1093   0.0000   0.3430
   3.400   1.9245   0.07445   0.06917  -0.2055  0.1598  0.5963  -3.1627   0.0000   0.3412
   3.600   1.9387   0.07497   0.06968  -0.2043  0.1565  0.5982  -3.2158   0.0000   0.3394
   3.800   1.9525   0.07551   0.07019  -0.2030  0.1523  0.5999  -3.2703   0.0000   0.3376
   4.000   1.9677   0.07602   0.07072  -0.2019  0.1498  0.6028  -3.3277   0.0000   0.3359
   4.200   1.9826   0.07655   0.07125  -0.2007  0.1465  0.6057  -3.3885   0.0000   0.3342
   4.400   1.9964   0.07711   0.07180  -0.1994  0.1426  0.6084  -3.4483   0.0000   0.3325
   4.600   2.0102   0.07766   0.07233  -0.1982  0.1389  0.6108  -3.5085   0.0000   0.3308
   4.800   2.0240   0.07819   0.07286  -0.1969  0.1353  0.6130  -3.5732   0.0000   0.3291
   5.000   2.0363   0.07881   0.07345  -0.1954  0.1304  0.6148  -3.6399   0.0000   0.3274
   5.200   2.0495   0.07936   0.07399  -0.1941  0.1274  0.6164  -3.7090   0.0000   0.3257
   5.400   2.0628   0.07990   0.07454  -0.1928  0.1249  0.6178  -3.7786   0.0000   0.3241
   5.600   2.0752   0.08051   0.07514  -0.1914  0.1219  0.6203  -3.8475   0.0000   0.3225
   5.800   2.0860   0.08128   0.07591  -0.1898  0.1185  0.6228  -3.9151   0.0000   0.3208
   6.000   2.0972   0.08201   0.07666  -0.1882  0.1160  0.6252  -3.9843   0.0000   0.3192
   6.200   2.1076   0.08278   0.07742  -0.1866  0.1123  0.6273  -4.0519   0.0000   0.3176
   6.400   2.1169   0.08360   0.07822  -0.1849  0.1079  0.6292  -4.1206   0.0000   0.3159
   6.600   2.1282   0.08428   0.07891  -0.1834  0.1052  0.6311  -4.1956   0.0000   0.3144
   6.800   2.1383   0.08504   0.07966  -0.1818  0.1018  0.6330  -4.2726   0.0000   0.3128
   7.000   2.1477   0.08587   0.08048  -0.1801  0.0981  0.6347  -4.3492   0.0000   0.3112
   7.200   2.1576   0.08668   0.08129  -0.1786  0.0951  0.6362  -4.4276   0.0000   0.3096
   7.400   2.1634   0.08781   0.08241  -0.1766  0.0912  0.6377  -4.4965   0.0000   0.3080
   7.600   2.1711   0.08875   0.08336  -0.1748  0.0883  0.6398  -4.5701   0.0000   0.3065
   7.800   2.1794   0.08963   0.08425  -0.1731  0.0855  0.6416  -4.6470   0.0000   0.3049
   8.000   2.1863   0.09062   0.08523  -0.1713  0.0824  0.6433  -4.7217   0.0000   0.3034
   8.200   2.1944   0.09150   0.08614  -0.1696  0.0801  0.6451  -4.8025   0.0000   0.3019
   8.400   2.1997   0.09270   0.08734  -0.1678  0.0773  0.6470  -4.8772   0.0000   0.3004
   8.600   2.2040   0.09399   0.08863  -0.1659  0.0740  0.6488  -4.9509   0.0000   0.2989
   8.800   2.2111   0.09502   0.08967  -0.1642  0.0716  0.6506  -5.0329   0.0000   0.2974
   9.000   2.2163   0.09624   0.09090  -0.1625  0.0686  0.6521  -5.1097   0.0000   0.2960
   9.200   2.2197   0.09767   0.09234  -0.1607  0.0662  0.6534  -5.1822   0.0000   0.2945
   9.400   2.2249   0.09891   0.09359  -0.1591  0.0639  0.6544  -5.2650   0.0000   0.2931
   9.600   2.2285   0.10029   0.09498  -0.1574  0.0613  0.6553  -5.3429   0.0000   0.2917
   9.800   2.2307   0.10171   0.09643  -0.1556  0.0594  0.6571  -5.4164   0.0000   0.2903
  10.000   2.2339   0.10303   0.09777  -0.1539  0.0573  0.6589  -5.4935   0.0000   0.2889
  10.200   2.2343   0.10467   0.09943  -0.1522  0.0552  0.6604  -5.5616   0.0000   0.2876
  10.400   2.2369   0.10608   0.10088  -0.1507  0.0535  0.6620  -5.6369   0.0000   0.2863
  10.600   2.2379   0.10769   0.10251  -0.1492  0.0518  0.6635  -5.7074   0.0000   0.2850
  10.800   2.2375   0.10946   0.10431  -0.1477  0.0498  0.6647  -5.7729   0.0000   0.2838
  11.000   2.2384   0.11112   0.10600  -0.1464  0.0482  0.6661  -5.8427   0.0000   0.2826
  11.200   2.2383   0.11290   0.10782  -0.1452  0.0466  0.6673  -5.9094   0.0000   0.2814
  11.400   2.2369   0.11484   0.10978  -0.1440  0.0448  0.6685  -5.9712   0.0000   0.2803
  11.600   2.2368   0.11666   0.11164  -0.1430  0.0434  0.6698  -6.0371   0.0000   0.2793
  11.800   2.2362   0.11857   0.11358  -0.1422  0.0420  0.6710  -6.1017   0.0000   0.2783
  12.000   2.2354   0.12052   0.11557  -0.1414  0.0407  0.6721  -6.1648   0.0000   0.2774
  12.200   2.2334   0.12260   0.11768  -0.1408  0.0395  0.6731  -6.2237   0.0000   0.2765
  12.400   2.2328   0.12455   0.11968  -0.1403  0.0386  0.6740  -6.2870   0.0000   0.2756
  12.600   2.2308   0.12643   0.12160  -0.1397  0.0376  0.6753  -6.3450   0.0000   0.2748
  12.800   2.2279   0.12844   0.12366  -0.1393  0.0366  0.6765  -6.3993   0.0000   0.2740
  13.000   2.2231   0.13072   0.12599  -0.1391  0.0356  0.6775  -6.4457   0.0000   0.2734
  13.200   2.2198   0.13282   0.12814  -0.1389  0.0348  0.6786  -6.4973   0.0000   0.2727
  13.400   2.2174   0.13480   0.13017  -0.1388  0.0341  0.6796  -6.5524   0.0000   0.2721
  13.600   2.2137   0.13697   0.13239  -0.1390  0.0332  0.6807  -6.6012   0.0000   0.2715
  13.800   2.2084   0.13935   0.13483  -0.1393  0.0324  0.6817  -6.6434   0.0000   0.2711
  14.000   2.2024   0.14183   0.13736  -0.1398  0.0316  0.6827  -6.6820   0.0000   0.2708
  14.200   2.1984   0.14408   0.13966  -0.1404  0.0310  0.6839  -6.7276   0.0000   0.2704
  14.400   2.1946   0.14630   0.14193  -0.1410  0.0304  0.6851  -6.7741   0.0000   0.2701
  14.600   2.1892   0.14877   0.14447  -0.1419  0.0297  0.6863  -6.8124   0.0000   0.2699
  14.800   2.1831   0.15136   0.14711  -0.1430  0.0290  0.6873  -6.8471   0.0000   0.2698
  15.000   2.1764   0.15403   0.14983  -0.1442  0.0284  0.6883  -6.8786   0.0000   0.2698
  15.200   2.1702   0.15665   0.15251  -0.1456  0.0278  0.6892  -6.9146   0.0000   0.2698
  15.400   2.1651   0.15913   0.15505  -0.1469  0.0273  0.6901  -6.9549   0.0000   0.2698
  15.600   2.1588   0.16178   0.15775  -0.1484  0.0268  0.6908  -6.9887   0.0000   0.2699
  15.800   2.1524   0.16443   0.16047  -0.1501  0.0263  0.6914  -7.0212   0.0000   0.2701
  16.000   2.1462   0.16706   0.16315  -0.1517  0.0258  0.6920  -7.0537   0.0000   0.2703
  16.200   2.1371   0.16995   0.16610  -0.1537  0.0252  0.6928  -7.0713   0.0000   0.2706
  16.400   2.1273   0.17291   0.16912  -0.1559  0.0247  0.6936  -7.0842   0.0000   0.2711
  16.600   2.1200   0.17552   0.17180  -0.1577  0.0243  0.6946  -7.1088   0.0000   0.2714
  16.800   2.1132   0.17807   0.17440  -0.1596  0.0239  0.6955  -7.1350   0.0000   0.2717
  17.000   2.1047   0.18088   0.17728  -0.1618  0.0235  0.6965  -7.1507   0.0000   0.2722
  17.200   2.0981   0.18338   0.17983  -0.1637  0.0230  0.6974  -7.1765   0.0000   0.2725
  17.400   2.0886   0.18635   0.18286  -0.1662  0.0225  0.6983  -7.1850   0.0000   0.2732
  17.600   2.0794   0.18928   0.18585  -0.1688  0.0221  0.6991  -7.1938   0.0000   0.2738
  17.800   2.0721   0.19194   0.18855  -0.1711  0.0216  0.7000  -7.2117   0.0000   0.2743
  18.000   2.0648   0.19461   0.19128  -0.1735  0.0213  0.7009  -7.2291   0.0000   0.2749
  18.200   2.0599   0.19692   0.19365  -0.1755  0.0209  0.7018  -7.2589   0.0000   0.2752
  18.400   2.0527   0.19961   0.19639  -0.1780  0.0205  0.7027  -7.2742   0.0000   0.2758
  18.600   2.0469   0.20207   0.19889  -0.1803  0.0200  0.7035  -7.2974   0.0000   0.2763
  18.800   2.0408   0.20460   0.20147  -0.1828  0.0195  0.7044  -7.3174   0.0000   0.2769
  19.000   2.0332   0.20738   0.20430  -0.1856  0.0191  0.7052  -7.3284   0.0000   0.2776
  19.200   2.0294   0.20956   0.20651  -0.1877  0.0188  0.7061  -7.3648   0.0000   0.2780
  19.400   2.0225   0.21226   0.20926  -0.1905  0.0185  0.7069  -7.3799   0.0000   0.2787
  19.600   2.0195   0.21432   0.21136  -0.1926  0.0181  0.7079  -7.4202   0.0000   0.2790
  19.800   2.0159   0.21649   0.21357  -0.1949  0.0177  0.7087  -7.4556   0.0000   0.2794
  20.000   2.0091   0.21918   0.21631  -0.1978  0.0173  0.7094  -7.4679   0.0000   0.2802
  20.200   2.0054   0.22133   0.21849  -0.2002  0.0169  0.7101  -7.5013   0.0000   0.2806
  20.400   1.9978   0.22392   0.22113  -0.2030  0.0165  0.7109  -7.5079   0.0000   0.2814
  20.600   1.9933   0.22598   0.22323  -0.2053  0.0162  0.7118  -7.5359   0.0000   0.2818
  20.800   1.9903   0.22779   0.22507  -0.2072  0.0159  0.7126  -7.5761   0.0000   0.2821
  21.000   1.9843   0.23013   0.22746  -0.2099  0.0156  0.7134  -7.5924   0.0000   0.2827
  21.200   1.9798   0.23219   0.22956  -0.2123  0.0152  0.7141  -7.6198   0.0000   0.2832
  21.400   1.9764   0.23406   0.23145  -0.2144  0.0149  0.7149  -7.6549   0.0000   0.2835
  21.600   1.9697   0.23651   0.23395  -0.2174  0.0145  0.7155  -7.6632   0.0000   0.2844
  21.800   1.9648   0.23864   0.23611  -0.2199  0.0142  0.7163  -7.6847   0.0000   0.2850
  22.000   1.9629   0.24023   0.23774  -0.2218  0.0140  0.7171  -7.7294   0.0000   0.2851
  22.200   1.9597   0.24207   0.23962  -0.2241  0.0137  0.7179  -7.7624   0.0000   0.2854
  22.400   1.9543   0.24429   0.24188  -0.2269  0.0135  0.7186  -7.7773   0.0000   0.2861
  22.600   1.9522   0.24593   0.24355  -0.2289  0.0132  0.7195  -7.8184   0.0000   0.2863
  22.800   1.9498   0.24762   0.24526  -0.2310  0.0129  0.7203  -7.8569   0.0000   0.2866
  23.000   1.9434   0.25006   0.24775  -0.2342  0.0127  0.7212  -7.8587   0.0000   0.2875
  23.200   1.9405   0.25185   0.24957  -0.2366  0.0124  0.7222  -7.8910   0.0000   0.2879
  23.400   1.9380   0.25358   0.25133  -0.2388  0.0122  0.7232  -7.9257   0.0000   0.2882
  23.600   1.9334   0.25568   0.25347  -0.2417  0.0120  0.7240  -7.9411   0.0000   0.2889
  23.800   1.9307   0.25744   0.25526  -0.2440  0.0118  0.7249  -7.9720   0.0000   0.2892
  24.000   1.9292   0.25895   0.25680  -0.2461  0.0116  0.7257  -8.0142   0.0000   0.2894
  24.200   1.9273   0.26051   0.25839  -0.2483  0.0114  0.7264  -8.0526   0.0000   0.2896
  24.400   1.9217   0.26286   0.26078  -0.2514  0.0111  0.7269  -8.0550   0.0000   0.2905


